
---------- Begin Simulation Statistics ----------
simSeconds                                   2.386254                       # Number of seconds simulated (Second)
simTicks                                 2386253760000                       # Number of ticks simulated (Tick)
finalTick                                2386253760000                       # Number of ticks from beginning of simulation (restored from checkpoints and never reset) (Tick)
simFreq                                  1000000000000                       # The number of ticks per simulated second ((Tick/Second))
hostSeconds                                     60.89                       # Real time elapsed on the host (Second)
hostTickRate                              39186595773                       # The number of ticks simulated per host second (ticks/s) ((Tick/Second))
hostMemory                                    8640756                       # Number of bytes of host memory used (Byte)
simInsts                                     15404076                       # Number of instructions simulated (Count)
simOps                                       27758102                       # Number of ops (including micro ops) simulated (Count)
hostInstRate                                   252962                       # Simulator instruction rate (inst/s) ((Count/Second))
hostOpRate                                     455838                       # Simulator op (including micro ops) rate (op/s) ((Count/Second))
system.clk_domain.clock                          5000                       # Clock period in ticks (Tick)
system.clk_domain.voltage_domain.voltage            1                       # Voltage in Volts (Volt)
system.cpu.numCycles                        477250752                       # Number of cpu cycles simulated (Cycle)
system.cpu.cpi                              30.958650                       # CPI: cycles per instruction (core level) ((Cycle/Count))
system.cpu.ipc                               0.032301                       # IPC: instructions per cycle (core level) ((Count/Cycle))
system.cpu.numWorkItemsStarted                      0                       # Number of work items this cpu started (Count)
system.cpu.numWorkItemsCompleted                    0                       # Number of work items this cpu completed (Count)
system.cpu.commitStats0.numInsts             15415748                       # Number of instructions committed (thread level) (Count)
system.cpu.commitStats0.numOps               27769954                       # Number of ops (including micro ops) committed (thread level) (Count)
system.cpu.commitStats0.numInstsNotNOP              0                       # Number of instructions committed excluding NOPs or prefetches (Count)
system.cpu.commitStats0.numOpsNotNOP                0                       # Number of Ops (including micro ops) Simulated (Count)
system.cpu.commitStats0.cpi                 30.958650                       # CPI: cycles per instruction (thread level) ((Cycle/Count))
system.cpu.commitStats0.ipc                  0.032301                       # IPC: instructions per cycle (thread level) ((Count/Cycle))
system.cpu.commitStats0.numMemRefs                  0                       # Number of memory references committed (Count)
system.cpu.commitStats0.numFpInsts            5600603                       # Number of float instructions (Count)
system.cpu.commitStats0.numIntInsts          24626459                       # Number of integer instructions (Count)
system.cpu.commitStats0.numLoadInsts          3539141                       # Number of load instructions (Count)
system.cpu.commitStats0.numStoreInsts         2319796                       # Number of store instructions (Count)
system.cpu.commitStats0.numVecInsts                 0                       # Number of vector instructions (Count)
system.cpu.commitStats0.committedInstType::No_OpClass       296101      1.07%      1.07% # Class of committed instruction. (Count)
system.cpu.commitStats0.committedInstType::IntAlu     18730609     67.45%     68.52% # Class of committed instruction. (Count)
system.cpu.commitStats0.committedInstType::IntMult        16984      0.06%     68.58% # Class of committed instruction. (Count)
system.cpu.commitStats0.committedInstType::IntDiv        39630      0.14%     68.72% # Class of committed instruction. (Count)
system.cpu.commitStats0.committedInstType::FloatAdd      1548717      5.58%     74.30% # Class of committed instruction. (Count)
system.cpu.commitStats0.committedInstType::FloatCmp            0      0.00%     74.30% # Class of committed instruction. (Count)
system.cpu.commitStats0.committedInstType::FloatCvt         1312      0.00%     74.30% # Class of committed instruction. (Count)
system.cpu.commitStats0.committedInstType::FloatMult            0      0.00%     74.30% # Class of committed instruction. (Count)
system.cpu.commitStats0.committedInstType::FloatMultAcc            0      0.00%     74.30% # Class of committed instruction. (Count)
system.cpu.commitStats0.committedInstType::FloatDiv            0      0.00%     74.30% # Class of committed instruction. (Count)
system.cpu.commitStats0.committedInstType::FloatMisc            0      0.00%     74.30% # Class of committed instruction. (Count)
system.cpu.commitStats0.committedInstType::FloatSqrt            0      0.00%     74.30% # Class of committed instruction. (Count)
system.cpu.commitStats0.committedInstType::SimdAdd         6606      0.02%     74.32% # Class of committed instruction. (Count)
system.cpu.commitStats0.committedInstType::SimdAddAcc            0      0.00%     74.32% # Class of committed instruction. (Count)
system.cpu.commitStats0.committedInstType::SimdAlu        69019      0.25%     74.57% # Class of committed instruction. (Count)
system.cpu.commitStats0.committedInstType::SimdCmp           18      0.00%     74.57% # Class of committed instruction. (Count)
system.cpu.commitStats0.committedInstType::SimdCvt        24882      0.09%     74.66% # Class of committed instruction. (Count)
system.cpu.commitStats0.committedInstType::SimdMisc        30322      0.11%     74.77% # Class of committed instruction. (Count)
system.cpu.commitStats0.committedInstType::SimdMult            0      0.00%     74.77% # Class of committed instruction. (Count)
system.cpu.commitStats0.committedInstType::SimdMultAcc            0      0.00%     74.77% # Class of committed instruction. (Count)
system.cpu.commitStats0.committedInstType::SimdMatMultAcc            0      0.00%     74.77% # Class of committed instruction. (Count)
system.cpu.commitStats0.committedInstType::SimdShift         1828      0.01%     74.78% # Class of committed instruction. (Count)
system.cpu.commitStats0.committedInstType::SimdShiftAcc            0      0.00%     74.78% # Class of committed instruction. (Count)
system.cpu.commitStats0.committedInstType::SimdDiv            0      0.00%     74.78% # Class of committed instruction. (Count)
system.cpu.commitStats0.committedInstType::SimdSqrt            0      0.00%     74.78% # Class of committed instruction. (Count)
system.cpu.commitStats0.committedInstType::SimdFloatAdd         5586      0.02%     74.80% # Class of committed instruction. (Count)
system.cpu.commitStats0.committedInstType::SimdFloatAlu            0      0.00%     74.80% # Class of committed instruction. (Count)
system.cpu.commitStats0.committedInstType::SimdFloatCmp            0      0.00%     74.80% # Class of committed instruction. (Count)
system.cpu.commitStats0.committedInstType::SimdFloatCvt      1133787      4.08%     78.88% # Class of committed instruction. (Count)
system.cpu.commitStats0.committedInstType::SimdFloatDiv         5616      0.02%     78.90% # Class of committed instruction. (Count)
system.cpu.commitStats0.committedInstType::SimdFloatMisc            0      0.00%     78.90% # Class of committed instruction. (Count)
system.cpu.commitStats0.committedInstType::SimdFloatMult            0      0.00%     78.90% # Class of committed instruction. (Count)
system.cpu.commitStats0.committedInstType::SimdFloatMultAcc            0      0.00%     78.90% # Class of committed instruction. (Count)
system.cpu.commitStats0.committedInstType::SimdFloatMatMultAcc            0      0.00%     78.90% # Class of committed instruction. (Count)
system.cpu.commitStats0.committedInstType::SimdFloatSqrt            0      0.00%     78.90% # Class of committed instruction. (Count)
system.cpu.commitStats0.committedInstType::SimdReduceAdd            0      0.00%     78.90% # Class of committed instruction. (Count)
system.cpu.commitStats0.committedInstType::SimdReduceAlu            0      0.00%     78.90% # Class of committed instruction. (Count)
system.cpu.commitStats0.committedInstType::SimdReduceCmp            0      0.00%     78.90% # Class of committed instruction. (Count)
system.cpu.commitStats0.committedInstType::SimdFloatReduceAdd            0      0.00%     78.90% # Class of committed instruction. (Count)
system.cpu.commitStats0.committedInstType::SimdFloatReduceCmp            0      0.00%     78.90% # Class of committed instruction. (Count)
system.cpu.commitStats0.committedInstType::SimdAes            0      0.00%     78.90% # Class of committed instruction. (Count)
system.cpu.commitStats0.committedInstType::SimdAesMix            0      0.00%     78.90% # Class of committed instruction. (Count)
system.cpu.commitStats0.committedInstType::SimdSha1Hash            0      0.00%     78.90% # Class of committed instruction. (Count)
system.cpu.commitStats0.committedInstType::SimdSha1Hash2            0      0.00%     78.90% # Class of committed instruction. (Count)
system.cpu.commitStats0.committedInstType::SimdSha256Hash            0      0.00%     78.90% # Class of committed instruction. (Count)
system.cpu.commitStats0.committedInstType::SimdSha256Hash2            0      0.00%     78.90% # Class of committed instruction. (Count)
system.cpu.commitStats0.committedInstType::SimdShaSigma2            0      0.00%     78.90% # Class of committed instruction. (Count)
system.cpu.commitStats0.committedInstType::SimdShaSigma3            0      0.00%     78.90% # Class of committed instruction. (Count)
system.cpu.commitStats0.committedInstType::SimdPredAlu            0      0.00%     78.90% # Class of committed instruction. (Count)
system.cpu.commitStats0.committedInstType::Matrix            0      0.00%     78.90% # Class of committed instruction. (Count)
system.cpu.commitStats0.committedInstType::MatrixMov            0      0.00%     78.90% # Class of committed instruction. (Count)
system.cpu.commitStats0.committedInstType::MatrixOP            0      0.00%     78.90% # Class of committed instruction. (Count)
system.cpu.commitStats0.committedInstType::MemRead      1963328      7.07%     85.97% # Class of committed instruction. (Count)
system.cpu.commitStats0.committedInstType::MemWrite      1137770      4.10%     90.07% # Class of committed instruction. (Count)
system.cpu.commitStats0.committedInstType::FloatMemRead      1575813      5.67%     95.74% # Class of committed instruction. (Count)
system.cpu.commitStats0.committedInstType::FloatMemWrite      1182026      4.26%    100.00% # Class of committed instruction. (Count)
system.cpu.commitStats0.committedInstType::IprAccess            0      0.00%    100.00% # Class of committed instruction. (Count)
system.cpu.commitStats0.committedInstType::InstPrefetch            0      0.00%    100.00% # Class of committed instruction. (Count)
system.cpu.commitStats0.committedInstType::SimdUnitStrideLoad            0      0.00%    100.00% # Class of committed instruction. (Count)
system.cpu.commitStats0.committedInstType::SimdUnitStrideStore            0      0.00%    100.00% # Class of committed instruction. (Count)
system.cpu.commitStats0.committedInstType::SimdUnitStrideMaskLoad            0      0.00%    100.00% # Class of committed instruction. (Count)
system.cpu.commitStats0.committedInstType::SimdUnitStrideMaskStore            0      0.00%    100.00% # Class of committed instruction. (Count)
system.cpu.commitStats0.committedInstType::SimdStridedLoad            0      0.00%    100.00% # Class of committed instruction. (Count)
system.cpu.commitStats0.committedInstType::SimdStridedStore            0      0.00%    100.00% # Class of committed instruction. (Count)
system.cpu.commitStats0.committedInstType::SimdIndexedLoad            0      0.00%    100.00% # Class of committed instruction. (Count)
system.cpu.commitStats0.committedInstType::SimdIndexedStore            0      0.00%    100.00% # Class of committed instruction. (Count)
system.cpu.commitStats0.committedInstType::SimdWholeRegisterLoad            0      0.00%    100.00% # Class of committed instruction. (Count)
system.cpu.commitStats0.committedInstType::SimdWholeRegisterStore            0      0.00%    100.00% # Class of committed instruction. (Count)
system.cpu.commitStats0.committedInstType::SimdUnitStrideFaultOnlyFirstLoad            0      0.00%    100.00% # Class of committed instruction. (Count)
system.cpu.commitStats0.committedInstType::SimdUnitStrideSegmentedLoad            0      0.00%    100.00% # Class of committed instruction. (Count)
system.cpu.commitStats0.committedInstType::SimdUnitStrideSegmentedStore            0      0.00%    100.00% # Class of committed instruction. (Count)
system.cpu.commitStats0.committedInstType::SimdExt            0      0.00%    100.00% # Class of committed instruction. (Count)
system.cpu.commitStats0.committedInstType::SimdFloatExt            0      0.00%    100.00% # Class of committed instruction. (Count)
system.cpu.commitStats0.committedInstType::SimdConfig            0      0.00%    100.00% # Class of committed instruction. (Count)
system.cpu.commitStats0.committedInstType::total     27769954                       # Class of committed instruction. (Count)
system.cpu.commitStats0.committedControl::IsControl      2973825                       # Class of control type instructions committed (Count)
system.cpu.commitStats0.committedControl::IsDirectControl      2708408                       # Class of control type instructions committed (Count)
system.cpu.commitStats0.committedControl::IsIndirectControl       265104                       # Class of control type instructions committed (Count)
system.cpu.commitStats0.committedControl::IsCondControl      2395575                       # Class of control type instructions committed (Count)
system.cpu.commitStats0.committedControl::IsUncondControl       577937                       # Class of control type instructions committed (Count)
system.cpu.commitStats0.committedControl::IsCall       175279                       # Class of control type instructions committed (Count)
system.cpu.commitStats0.committedControl::IsReturn       175274                       # Class of control type instructions committed (Count)
system.cpu.exec_context.thread_0.numMatAluAccesses            0                       # Number of matrix alu accesses (Count)
system.cpu.exec_context.thread_0.numCallsReturns       350553                       # Number of times a function call or return occured (Count)
system.cpu.exec_context.thread_0.numMatInsts            0                       # Number of matrix instructions (Count)
system.cpu.exec_context.thread_0.numIdleCycles            0                       # Number of idle cycles (Cycle)
system.cpu.exec_context.thread_0.numBusyCycles    477250752                       # Number of busy cycles (Cycle)
system.cpu.exec_context.thread_0.notIdleFraction            1                       # Percentage of non-idle cycles (Ratio)
system.cpu.exec_context.thread_0.idleFraction            0                       # Percentage of idle cycles (Ratio)
system.cpu.executeStats0.numInsts                   0                       # Number of executed instructions (Count)
system.cpu.executeStats0.numNop                     0                       # Number of nop insts executed (Count)
system.cpu.executeStats0.numBranches                0                       # Number of branches executed (Count)
system.cpu.executeStats0.numLoadInsts               0                       # Number of load instructions executed (Count)
system.cpu.executeStats0.numStoreInsts        5858937                       # Number of stores executed (Count)
system.cpu.executeStats0.instRate                   0                       # Inst execution rate ((Count/Cycle))
system.cpu.executeStats0.numFpAluAccesses      5600603                       # Number of float alu accesses (Count)
system.cpu.executeStats0.numFpRegReads        3781546                       # Number of times the floating registers were read (Count)
system.cpu.executeStats0.numFpRegWrites       3270850                       # Number of times the floating registers were written (Count)
system.cpu.executeStats0.numIntAluAccesses     24626459                       # Number of integer alu accesses (Count)
system.cpu.executeStats0.numIntRegReads      27010302                       # Number of times the integer registers were read (Count)
system.cpu.executeStats0.numIntRegWrites     16661186                       # Number of times the integer registers were written (Count)
system.cpu.executeStats0.numMemRefs           5858937                       # Number of memory refs (Count)
system.cpu.executeStats0.numMiscRegReads     11652112                       # Number of times the Misc registers were read (Count)
system.cpu.executeStats0.numMiscRegWrites          738                       # Number of times the Misc registers were written (Count)
system.cpu.executeStats0.numVecAluAccesses            0                       # Number of vector alu accesses (Count)
system.cpu.executeStats0.numDiscardedOps            0                       # Number of ops (including micro ops) which were discarded before commit (Count)
system.cpu.fetchStats0.numInsts              15415748                       # Number of instructions fetched (thread level) (Count)
system.cpu.fetchStats0.numOps                27769954                       # Number of ops (including micro ops) fetched (thread level) (Count)
system.cpu.fetchStats0.fetchRate             0.032301                       # Number of inst fetches per cycle ((Count/Cycle))
system.cpu.fetchStats0.numBranches            2973825                       # Number of branches fetched (Count)
system.cpu.fetchStats0.branchRate            0.006231                       # Number of branch fetches per cycle (Ratio)
system.cpu.fetchStats0.numFetchSuspends             0                       # Number of times Execute suspended instruction fetching (Count)
system.cpu.interrupts.clk_domain.clock          80000                       # Clock period in ticks (Tick)
system.cpu.mmu.dtb.rdAccesses                 3539172                       # TLB accesses on read requests (Count)
system.cpu.mmu.dtb.wrAccesses                 2319808                       # TLB accesses on write requests (Count)
system.cpu.mmu.dtb.rdMisses                      1821                       # TLB misses on read requests (Count)
system.cpu.mmu.dtb.wrMisses                       709                       # TLB misses on write requests (Count)
system.cpu.mmu.dtb.walker.power_state.pwrStateResidencyTicks::UNDEFINED 2386253760000                       # Cumulative time (in ticks) in various power states (Tick)
system.cpu.mmu.itb.rdAccesses                       0                       # TLB accesses on read requests (Count)
system.cpu.mmu.itb.wrAccesses                19986208                       # TLB accesses on write requests (Count)
system.cpu.mmu.itb.rdMisses                         0                       # TLB misses on read requests (Count)
system.cpu.mmu.itb.wrMisses                       514                       # TLB misses on write requests (Count)
system.cpu.mmu.itb.walker.power_state.pwrStateResidencyTicks::UNDEFINED 2386253760000                       # Cumulative time (in ticks) in various power states (Tick)
system.cpu.power_state.pwrStateResidencyTicks::ON 2386253760000                       # Cumulative time (in ticks) in various power states (Tick)
system.cpu.thread_0.numInsts                        0                       # Number of Instructions committed (Count)
system.cpu.thread_0.numOps                          0                       # Number of Ops committed (Count)
system.cpu.thread_0.numMemRefs                      0                       # Number of Memory References (Count)
system.cpu.workload.numSyscalls                 11276                       # Number of system calls (Count)
system.mem_ctrl.avgPriority_cpu.inst::samples  19986092.00                       # Average QoS priority value for accepted requests (Count)
system.mem_ctrl.avgPriority_cpu.data::samples   3137729.00                       # Average QoS priority value for accepted requests (Count)
system.mem_ctrl.priorityMinLatency       0.000000018750                       # per QoS priority minimum request to response latency (Second)
system.mem_ctrl.priorityMaxLatency       0.060828892500                       # per QoS priority maximum request to response latency (Second)
system.mem_ctrl.numReadWriteTurnArounds          1021                       # Number of turnarounds from READ to WRITE (Count)
system.mem_ctrl.numWriteReadTurnArounds          1021                       # Number of turnarounds from WRITE to READ (Count)
system.mem_ctrl.numStayReadState             49143942                       # Number of times bus staying in READ state (Count)
system.mem_ctrl.numStayWriteState               16633                       # Number of times bus staying in WRITE state (Count)
system.mem_ctrl.readReqs                     23525013                       # Number of read requests accepted (Count)
system.mem_ctrl.writeReqs                     2319482                       # Number of write requests accepted (Count)
system.mem_ctrl.readBursts                   23525013                       # Number of controller read bursts, including those serviced by the write queue (Count)
system.mem_ctrl.writeBursts                   2319482                       # Number of controller write bursts, including those merged in the write queue (Count)
system.mem_ctrl.servicedByWrQ                  418831                       # Number of controller read bursts serviced by the write queue (Count)
system.mem_ctrl.mergedWrBursts                2301843                       # Number of controller write bursts merged with an existing one (Count)
system.mem_ctrl.neitherReadNorWriteReqs             0                       # Number of requests that are neither read nor write (Count)
system.mem_ctrl.avgRdQLen                        1.00                       # Average read queue length when enqueuing ((Count/Tick))
system.mem_ctrl.avgWrQLen                       23.58                       # Average write queue length when enqueuing ((Count/Tick))
system.mem_ctrl.numRdRetry                          0                       # Number of times read queue was full causing retry (Count)
system.mem_ctrl.numWrRetry                          0                       # Number of times write queue was full causing retry (Count)
system.mem_ctrl.readPktSize::0                 272829                       # Read request sizes (log2) (Count)
system.mem_ctrl.readPktSize::1                  25901                       # Read request sizes (log2) (Count)
system.mem_ctrl.readPktSize::2                 146299                       # Read request sizes (log2) (Count)
system.mem_ctrl.readPktSize::3               23079984                       # Read request sizes (log2) (Count)
system.mem_ctrl.readPktSize::4                      0                       # Read request sizes (log2) (Count)
system.mem_ctrl.readPktSize::5                      0                       # Read request sizes (log2) (Count)
system.mem_ctrl.readPktSize::6                      0                       # Read request sizes (log2) (Count)
system.mem_ctrl.writePktSize::0                 46546                       # Write request sizes (log2) (Count)
system.mem_ctrl.writePktSize::1                 29162                       # Write request sizes (log2) (Count)
system.mem_ctrl.writePktSize::2                 81511                       # Write request sizes (log2) (Count)
system.mem_ctrl.writePktSize::3               2162263                       # Write request sizes (log2) (Count)
system.mem_ctrl.writePktSize::4                     0                       # Write request sizes (log2) (Count)
system.mem_ctrl.writePktSize::5                     0                       # Write request sizes (log2) (Count)
system.mem_ctrl.writePktSize::6                     0                       # Write request sizes (log2) (Count)
system.mem_ctrl.rdQLenPdf::0                 23106152                       # What read queue length does an incoming req see (Count)
system.mem_ctrl.rdQLenPdf::1                       30                       # What read queue length does an incoming req see (Count)
system.mem_ctrl.rdQLenPdf::2                        0                       # What read queue length does an incoming req see (Count)
system.mem_ctrl.rdQLenPdf::3                        0                       # What read queue length does an incoming req see (Count)
system.mem_ctrl.rdQLenPdf::4                        0                       # What read queue length does an incoming req see (Count)
system.mem_ctrl.rdQLenPdf::5                        0                       # What read queue length does an incoming req see (Count)
system.mem_ctrl.rdQLenPdf::6                        0                       # What read queue length does an incoming req see (Count)
system.mem_ctrl.rdQLenPdf::7                        0                       # What read queue length does an incoming req see (Count)
system.mem_ctrl.rdQLenPdf::8                        0                       # What read queue length does an incoming req see (Count)
system.mem_ctrl.rdQLenPdf::9                        0                       # What read queue length does an incoming req see (Count)
system.mem_ctrl.rdQLenPdf::10                       0                       # What read queue length does an incoming req see (Count)
system.mem_ctrl.rdQLenPdf::11                       0                       # What read queue length does an incoming req see (Count)
system.mem_ctrl.rdQLenPdf::12                       0                       # What read queue length does an incoming req see (Count)
system.mem_ctrl.rdQLenPdf::13                       0                       # What read queue length does an incoming req see (Count)
system.mem_ctrl.rdQLenPdf::14                       0                       # What read queue length does an incoming req see (Count)
system.mem_ctrl.rdQLenPdf::15                       0                       # What read queue length does an incoming req see (Count)
system.mem_ctrl.rdQLenPdf::16                       0                       # What read queue length does an incoming req see (Count)
system.mem_ctrl.rdQLenPdf::17                       0                       # What read queue length does an incoming req see (Count)
system.mem_ctrl.rdQLenPdf::18                       0                       # What read queue length does an incoming req see (Count)
system.mem_ctrl.rdQLenPdf::19                       0                       # What read queue length does an incoming req see (Count)
system.mem_ctrl.rdQLenPdf::20                       0                       # What read queue length does an incoming req see (Count)
system.mem_ctrl.rdQLenPdf::21                       0                       # What read queue length does an incoming req see (Count)
system.mem_ctrl.rdQLenPdf::22                       0                       # What read queue length does an incoming req see (Count)
system.mem_ctrl.rdQLenPdf::23                       0                       # What read queue length does an incoming req see (Count)
system.mem_ctrl.rdQLenPdf::24                       0                       # What read queue length does an incoming req see (Count)
system.mem_ctrl.rdQLenPdf::25                       0                       # What read queue length does an incoming req see (Count)
system.mem_ctrl.rdQLenPdf::26                       0                       # What read queue length does an incoming req see (Count)
system.mem_ctrl.rdQLenPdf::27                       0                       # What read queue length does an incoming req see (Count)
system.mem_ctrl.rdQLenPdf::28                       0                       # What read queue length does an incoming req see (Count)
system.mem_ctrl.rdQLenPdf::29                       0                       # What read queue length does an incoming req see (Count)
system.mem_ctrl.rdQLenPdf::30                       0                       # What read queue length does an incoming req see (Count)
system.mem_ctrl.rdQLenPdf::31                       0                       # What read queue length does an incoming req see (Count)
system.mem_ctrl.wrQLenPdf::0                        1                       # What write queue length does an incoming req see (Count)
system.mem_ctrl.wrQLenPdf::1                        1                       # What write queue length does an incoming req see (Count)
system.mem_ctrl.wrQLenPdf::2                        1                       # What write queue length does an incoming req see (Count)
system.mem_ctrl.wrQLenPdf::3                        1                       # What write queue length does an incoming req see (Count)
system.mem_ctrl.wrQLenPdf::4                        1                       # What write queue length does an incoming req see (Count)
system.mem_ctrl.wrQLenPdf::5                        1                       # What write queue length does an incoming req see (Count)
system.mem_ctrl.wrQLenPdf::6                        1                       # What write queue length does an incoming req see (Count)
system.mem_ctrl.wrQLenPdf::7                        1                       # What write queue length does an incoming req see (Count)
system.mem_ctrl.wrQLenPdf::8                        1                       # What write queue length does an incoming req see (Count)
system.mem_ctrl.wrQLenPdf::9                        1                       # What write queue length does an incoming req see (Count)
system.mem_ctrl.wrQLenPdf::10                       1                       # What write queue length does an incoming req see (Count)
system.mem_ctrl.wrQLenPdf::11                       1                       # What write queue length does an incoming req see (Count)
system.mem_ctrl.wrQLenPdf::12                       1                       # What write queue length does an incoming req see (Count)
system.mem_ctrl.wrQLenPdf::13                       1                       # What write queue length does an incoming req see (Count)
system.mem_ctrl.wrQLenPdf::14                       1                       # What write queue length does an incoming req see (Count)
system.mem_ctrl.wrQLenPdf::15                     317                       # What write queue length does an incoming req see (Count)
system.mem_ctrl.wrQLenPdf::16                     962                       # What write queue length does an incoming req see (Count)
system.mem_ctrl.wrQLenPdf::17                    1023                       # What write queue length does an incoming req see (Count)
system.mem_ctrl.wrQLenPdf::18                    1022                       # What write queue length does an incoming req see (Count)
system.mem_ctrl.wrQLenPdf::19                    1023                       # What write queue length does an incoming req see (Count)
system.mem_ctrl.wrQLenPdf::20                    1022                       # What write queue length does an incoming req see (Count)
system.mem_ctrl.wrQLenPdf::21                    1022                       # What write queue length does an incoming req see (Count)
system.mem_ctrl.wrQLenPdf::22                    1022                       # What write queue length does an incoming req see (Count)
system.mem_ctrl.wrQLenPdf::23                    1022                       # What write queue length does an incoming req see (Count)
system.mem_ctrl.wrQLenPdf::24                    1021                       # What write queue length does an incoming req see (Count)
system.mem_ctrl.wrQLenPdf::25                    1021                       # What write queue length does an incoming req see (Count)
system.mem_ctrl.wrQLenPdf::26                    1021                       # What write queue length does an incoming req see (Count)
system.mem_ctrl.wrQLenPdf::27                    1021                       # What write queue length does an incoming req see (Count)
system.mem_ctrl.wrQLenPdf::28                    1021                       # What write queue length does an incoming req see (Count)
system.mem_ctrl.wrQLenPdf::29                    1021                       # What write queue length does an incoming req see (Count)
system.mem_ctrl.wrQLenPdf::30                    1021                       # What write queue length does an incoming req see (Count)
system.mem_ctrl.wrQLenPdf::31                    1021                       # What write queue length does an incoming req see (Count)
system.mem_ctrl.wrQLenPdf::32                    1021                       # What write queue length does an incoming req see (Count)
system.mem_ctrl.wrQLenPdf::33                       0                       # What write queue length does an incoming req see (Count)
system.mem_ctrl.wrQLenPdf::34                       0                       # What write queue length does an incoming req see (Count)
system.mem_ctrl.wrQLenPdf::35                       0                       # What write queue length does an incoming req see (Count)
system.mem_ctrl.wrQLenPdf::36                       0                       # What write queue length does an incoming req see (Count)
system.mem_ctrl.wrQLenPdf::37                       0                       # What write queue length does an incoming req see (Count)
system.mem_ctrl.wrQLenPdf::38                       0                       # What write queue length does an incoming req see (Count)
system.mem_ctrl.wrQLenPdf::39                       0                       # What write queue length does an incoming req see (Count)
system.mem_ctrl.wrQLenPdf::40                       0                       # What write queue length does an incoming req see (Count)
system.mem_ctrl.wrQLenPdf::41                       0                       # What write queue length does an incoming req see (Count)
system.mem_ctrl.wrQLenPdf::42                       0                       # What write queue length does an incoming req see (Count)
system.mem_ctrl.wrQLenPdf::43                       0                       # What write queue length does an incoming req see (Count)
system.mem_ctrl.wrQLenPdf::44                       0                       # What write queue length does an incoming req see (Count)
system.mem_ctrl.wrQLenPdf::45                       0                       # What write queue length does an incoming req see (Count)
system.mem_ctrl.wrQLenPdf::46                       0                       # What write queue length does an incoming req see (Count)
system.mem_ctrl.wrQLenPdf::47                       0                       # What write queue length does an incoming req see (Count)
system.mem_ctrl.wrQLenPdf::48                       0                       # What write queue length does an incoming req see (Count)
system.mem_ctrl.wrQLenPdf::49                       0                       # What write queue length does an incoming req see (Count)
system.mem_ctrl.wrQLenPdf::50                       0                       # What write queue length does an incoming req see (Count)
system.mem_ctrl.wrQLenPdf::51                       0                       # What write queue length does an incoming req see (Count)
system.mem_ctrl.wrQLenPdf::52                       0                       # What write queue length does an incoming req see (Count)
system.mem_ctrl.wrQLenPdf::53                       0                       # What write queue length does an incoming req see (Count)
system.mem_ctrl.wrQLenPdf::54                       0                       # What write queue length does an incoming req see (Count)
system.mem_ctrl.wrQLenPdf::55                       0                       # What write queue length does an incoming req see (Count)
system.mem_ctrl.wrQLenPdf::56                       0                       # What write queue length does an incoming req see (Count)
system.mem_ctrl.wrQLenPdf::57                       0                       # What write queue length does an incoming req see (Count)
system.mem_ctrl.wrQLenPdf::58                       0                       # What write queue length does an incoming req see (Count)
system.mem_ctrl.wrQLenPdf::59                       0                       # What write queue length does an incoming req see (Count)
system.mem_ctrl.wrQLenPdf::60                       0                       # What write queue length does an incoming req see (Count)
system.mem_ctrl.wrQLenPdf::61                       0                       # What write queue length does an incoming req see (Count)
system.mem_ctrl.wrQLenPdf::62                       0                       # What write queue length does an incoming req see (Count)
system.mem_ctrl.wrQLenPdf::63                       0                       # What write queue length does an incoming req see (Count)
system.mem_ctrl.rdPerTurnAround::samples         1021                       # Reads before turning the bus around for writes (Count)
system.mem_ctrl.rdPerTurnAround::mean     3797.283056                       # Reads before turning the bus around for writes (Count)
system.mem_ctrl.rdPerTurnAround::stdev    9514.455568                       # Reads before turning the bus around for writes (Count)
system.mem_ctrl.rdPerTurnAround::0-4095           843     82.57%     82.57% # Reads before turning the bus around for writes (Count)
system.mem_ctrl.rdPerTurnAround::4096-8191           60      5.88%     88.44% # Reads before turning the bus around for writes (Count)
system.mem_ctrl.rdPerTurnAround::8192-12287           31      3.04%     91.48% # Reads before turning the bus around for writes (Count)
system.mem_ctrl.rdPerTurnAround::12288-16383           21      2.06%     93.54% # Reads before turning the bus around for writes (Count)
system.mem_ctrl.rdPerTurnAround::16384-20479            9      0.88%     94.42% # Reads before turning the bus around for writes (Count)
system.mem_ctrl.rdPerTurnAround::20480-24575           11      1.08%     95.49% # Reads before turning the bus around for writes (Count)
system.mem_ctrl.rdPerTurnAround::24576-28671           10      0.98%     96.47% # Reads before turning the bus around for writes (Count)
system.mem_ctrl.rdPerTurnAround::28672-32767           10      0.98%     97.45% # Reads before turning the bus around for writes (Count)
system.mem_ctrl.rdPerTurnAround::32768-36863            7      0.69%     98.14% # Reads before turning the bus around for writes (Count)
system.mem_ctrl.rdPerTurnAround::36864-40959            6      0.59%     98.73% # Reads before turning the bus around for writes (Count)
system.mem_ctrl.rdPerTurnAround::40960-45055            2      0.20%     98.92% # Reads before turning the bus around for writes (Count)
system.mem_ctrl.rdPerTurnAround::45056-49151            1      0.10%     99.02% # Reads before turning the bus around for writes (Count)
system.mem_ctrl.rdPerTurnAround::49152-53247            1      0.10%     99.12% # Reads before turning the bus around for writes (Count)
system.mem_ctrl.rdPerTurnAround::53248-57343            1      0.10%     99.22% # Reads before turning the bus around for writes (Count)
system.mem_ctrl.rdPerTurnAround::57344-61439            2      0.20%     99.41% # Reads before turning the bus around for writes (Count)
system.mem_ctrl.rdPerTurnAround::65536-69631            2      0.20%     99.61% # Reads before turning the bus around for writes (Count)
system.mem_ctrl.rdPerTurnAround::69632-73727            1      0.10%     99.71% # Reads before turning the bus around for writes (Count)
system.mem_ctrl.rdPerTurnAround::73728-77823            2      0.20%     99.90% # Reads before turning the bus around for writes (Count)
system.mem_ctrl.rdPerTurnAround::94208-98303            1      0.10%    100.00% # Reads before turning the bus around for writes (Count)
system.mem_ctrl.rdPerTurnAround::total           1021                       # Reads before turning the bus around for writes (Count)
system.mem_ctrl.wrPerTurnAround::samples         1021                       # Writes before turning the bus around for reads (Count)
system.mem_ctrl.wrPerTurnAround::mean       17.253673                       # Writes before turning the bus around for reads (Count)
system.mem_ctrl.wrPerTurnAround::gmean      17.244618                       # Writes before turning the bus around for reads (Count)
system.mem_ctrl.wrPerTurnAround::stdev       0.559498                       # Writes before turning the bus around for reads (Count)
system.mem_ctrl.wrPerTurnAround::16                60      5.88%      5.88% # Writes before turning the bus around for reads (Count)
system.mem_ctrl.wrPerTurnAround::17               645     63.17%     69.05% # Writes before turning the bus around for reads (Count)
system.mem_ctrl.wrPerTurnAround::18               313     30.66%     99.71% # Writes before turning the bus around for reads (Count)
system.mem_ctrl.wrPerTurnAround::19                 3      0.29%    100.00% # Writes before turning the bus around for reads (Count)
system.mem_ctrl.wrPerTurnAround::total           1021                       # Writes before turning the bus around for reads (Count)
system.mem_ctrl.bytesReadWrQ                 26805184                       # Total number of bytes read from write queue (Byte)
system.mem_ctrl.bytesReadSys                185549657                       # Total read bytes from the system interface side (Byte)
system.mem_ctrl.bytesWrittenSys              17729009                       # Total written bytes from the system interface side (Byte)
system.mem_ctrl.avgRdBWSys               77757722.21308099                       # Average system read bandwidth in Byte/s ((Byte/Second))
system.mem_ctrl.avgWrBWSys               7429641.09567291                       # Average system write bandwidth in Byte/s ((Byte/Second))
system.mem_ctrl.totGap                   2386253640000                       # Total gap between requests (Tick)
system.mem_ctrl.avgGap                       92331.22                       # Average gap between requests ((Tick/Count))
system.mem_ctrl.requestorReadBytes::cpu.inst    159888736                       # Per-requestor bytes read from memory (Byte)
system.mem_ctrl.requestorReadBytes::cpu.data     22340075                       # Per-requestor bytes read from memory (Byte)
system.mem_ctrl.requestorWriteBytes::cpu.data       137636                       # Per-requestor bytes write to memory (Byte)
system.mem_ctrl.requestorReadRate::cpu.inst 67004079.230869397521                       # Per-requestor bytes read from memory rate ((Byte/Second))
system.mem_ctrl.requestorReadRate::cpu.data 9361986.296042546630                       # Per-requestor bytes read from memory rate ((Byte/Second))
system.mem_ctrl.requestorWriteRate::cpu.data 57678.693820057095                       # Per-requestor bytes write to memory rate ((Byte/Second))
system.mem_ctrl.requestorReadAccesses::cpu.inst     19986092                       # Per-requestor read serviced memory accesses (Count)
system.mem_ctrl.requestorReadAccesses::cpu.data      3538921                       # Per-requestor read serviced memory accesses (Count)
system.mem_ctrl.requestorWriteAccesses::cpu.data      2319482                       # Per-requestor write serviced memory accesses (Count)
system.mem_ctrl.requestorReadTotalLat::cpu.inst 467725016000                       # Per-requestor read total memory access latency (Tick)
system.mem_ctrl.requestorReadTotalLat::cpu.data  91257867500                       # Per-requestor read total memory access latency (Tick)
system.mem_ctrl.requestorWriteTotalLat::cpu.data 10195619840500                       # Per-requestor write total memory access latency (Tick)
system.mem_ctrl.requestorReadAvgLat::cpu.inst     23402.52                       # Per-requestor read average memory access latency ((Tick/Count))
system.mem_ctrl.requestorReadAvgLat::cpu.data     25786.92                       # Per-requestor read average memory access latency ((Tick/Count))
system.mem_ctrl.requestorWriteAvgLat::cpu.data   4395645.17                       # Per-requestor write average memory access latency ((Tick/Count))
system.mem_ctrl.dram.bytesRead::cpu.inst    159888728                       # Number of bytes read from this memory (Byte)
system.mem_ctrl.dram.bytesRead::cpu.data     25660921                       # Number of bytes read from this memory (Byte)
system.mem_ctrl.dram.bytesRead::total       185549649                       # Number of bytes read from this memory (Byte)
system.mem_ctrl.dram.bytesInstRead::cpu.inst    159888728                       # Number of instructions bytes read from this memory (Byte)
system.mem_ctrl.dram.bytesInstRead::total    159888728                       # Number of instructions bytes read from this memory (Byte)
system.mem_ctrl.dram.bytesWritten::cpu.data     17729009                       # Number of bytes written to this memory (Byte)
system.mem_ctrl.dram.bytesWritten::total     17729009                       # Number of bytes written to this memory (Byte)
system.mem_ctrl.dram.numReads::cpu.inst      19986091                       # Number of read requests responded to by this memory (Count)
system.mem_ctrl.dram.numReads::cpu.data       3538921                       # Number of read requests responded to by this memory (Count)
system.mem_ctrl.dram.numReads::total         23525012                       # Number of read requests responded to by this memory (Count)
system.mem_ctrl.dram.numWrites::cpu.data      2319482                       # Number of write requests responded to by this memory (Count)
system.mem_ctrl.dram.numWrites::total         2319482                       # Number of write requests responded to by this memory (Count)
system.mem_ctrl.dram.bwRead::cpu.inst        67004076                       # Total read bandwidth from this memory ((Byte/Second))
system.mem_ctrl.dram.bwRead::cpu.data        10753643                       # Total read bandwidth from this memory ((Byte/Second))
system.mem_ctrl.dram.bwRead::total           77757719                       # Total read bandwidth from this memory ((Byte/Second))
system.mem_ctrl.dram.bwInstRead::cpu.inst     67004076                       # Instruction read bandwidth from this memory ((Byte/Second))
system.mem_ctrl.dram.bwInstRead::total       67004076                       # Instruction read bandwidth from this memory ((Byte/Second))
system.mem_ctrl.dram.bwWrite::cpu.data        7429641                       # Write bandwidth from this memory ((Byte/Second))
system.mem_ctrl.dram.bwWrite::total           7429641                       # Write bandwidth from this memory ((Byte/Second))
system.mem_ctrl.dram.bwTotal::cpu.inst       67004076                       # Total bandwidth to/from this memory ((Byte/Second))
system.mem_ctrl.dram.bwTotal::cpu.data       18183284                       # Total bandwidth to/from this memory ((Byte/Second))
system.mem_ctrl.dram.bwTotal::total          85187360                       # Total bandwidth to/from this memory ((Byte/Second))
system.mem_ctrl.dram.readBursts              23106182                       # Number of DRAM read bursts (Count)
system.mem_ctrl.dram.writeBursts                17616                       # Number of DRAM write bursts (Count)
system.mem_ctrl.dram.perBankRdBursts::0        795281                       # Per bank write bursts (Count)
system.mem_ctrl.dram.perBankRdBursts::1       6528761                       # Per bank write bursts (Count)
system.mem_ctrl.dram.perBankRdBursts::2         65507                       # Per bank write bursts (Count)
system.mem_ctrl.dram.perBankRdBursts::3       4352456                       # Per bank write bursts (Count)
system.mem_ctrl.dram.perBankRdBursts::4       1213014                       # Per bank write bursts (Count)
system.mem_ctrl.dram.perBankRdBursts::5        906572                       # Per bank write bursts (Count)
system.mem_ctrl.dram.perBankRdBursts::6       3338520                       # Per bank write bursts (Count)
system.mem_ctrl.dram.perBankRdBursts::7        669262                       # Per bank write bursts (Count)
system.mem_ctrl.dram.perBankRdBursts::8       2400287                       # Per bank write bursts (Count)
system.mem_ctrl.dram.perBankRdBursts::9         56083                       # Per bank write bursts (Count)
system.mem_ctrl.dram.perBankRdBursts::10        42483                       # Per bank write bursts (Count)
system.mem_ctrl.dram.perBankRdBursts::11       144477                       # Per bank write bursts (Count)
system.mem_ctrl.dram.perBankRdBursts::12        48711                       # Per bank write bursts (Count)
system.mem_ctrl.dram.perBankRdBursts::13       962083                       # Per bank write bursts (Count)
system.mem_ctrl.dram.perBankRdBursts::14      1316528                       # Per bank write bursts (Count)
system.mem_ctrl.dram.perBankRdBursts::15       266157                       # Per bank write bursts (Count)
system.mem_ctrl.dram.perBankWrBursts::0           928                       # Per bank write bursts (Count)
system.mem_ctrl.dram.perBankWrBursts::1           953                       # Per bank write bursts (Count)
system.mem_ctrl.dram.perBankWrBursts::2          1081                       # Per bank write bursts (Count)
system.mem_ctrl.dram.perBankWrBursts::3           924                       # Per bank write bursts (Count)
system.mem_ctrl.dram.perBankWrBursts::4          1162                       # Per bank write bursts (Count)
system.mem_ctrl.dram.perBankWrBursts::5          3713                       # Per bank write bursts (Count)
system.mem_ctrl.dram.perBankWrBursts::6           868                       # Per bank write bursts (Count)
system.mem_ctrl.dram.perBankWrBursts::7          1123                       # Per bank write bursts (Count)
system.mem_ctrl.dram.perBankWrBursts::8           692                       # Per bank write bursts (Count)
system.mem_ctrl.dram.perBankWrBursts::9           778                       # Per bank write bursts (Count)
system.mem_ctrl.dram.perBankWrBursts::10          780                       # Per bank write bursts (Count)
system.mem_ctrl.dram.perBankWrBursts::11          861                       # Per bank write bursts (Count)
system.mem_ctrl.dram.perBankWrBursts::12          836                       # Per bank write bursts (Count)
system.mem_ctrl.dram.perBankWrBursts::13          795                       # Per bank write bursts (Count)
system.mem_ctrl.dram.perBankWrBursts::14         1155                       # Per bank write bursts (Count)
system.mem_ctrl.dram.perBankWrBursts::15          967                       # Per bank write bursts (Count)
system.mem_ctrl.dram.totQLat             125741971000                       # Total ticks spent queuing (Tick)
system.mem_ctrl.dram.totBusLat           115530910000                       # Total ticks spent in databus transfers (Tick)
system.mem_ctrl.dram.totMemAccLat        558982883500                       # Total ticks spent from burst creation until serviced by the DRAM (Tick)
system.mem_ctrl.dram.avgQLat                  5441.92                       # Average queueing delay per DRAM burst ((Tick/Count))
system.mem_ctrl.dram.avgBusLat                5000.00                       # Average bus latency per DRAM burst ((Tick/Count))
system.mem_ctrl.dram.avgMemAccLat            24191.92                       # Average memory access latency per DRAM burst ((Tick/Count))
system.mem_ctrl.dram.readRowHits             20074433                       # Number of row buffer hits during reads (Count)
system.mem_ctrl.dram.writeRowHits               15312                       # Number of row buffer hits during writes (Count)
system.mem_ctrl.dram.readRowHitRate             86.88                       # Row buffer hit rate for reads (Ratio)
system.mem_ctrl.dram.writeRowHitRate            86.92                       # Row buffer hit rate for writes (Ratio)
system.mem_ctrl.dram.bytesPerActivate::samples      3034049                       # Bytes accessed per row activation (Byte)
system.mem_ctrl.dram.bytesPerActivate::mean   487.771329                       # Bytes accessed per row activation (Byte)
system.mem_ctrl.dram.bytesPerActivate::gmean   296.790007                       # Bytes accessed per row activation (Byte)
system.mem_ctrl.dram.bytesPerActivate::stdev   391.419485                       # Bytes accessed per row activation (Byte)
system.mem_ctrl.dram.bytesPerActivate::0-127       839546     27.67%     27.67% # Bytes accessed per row activation (Byte)
system.mem_ctrl.dram.bytesPerActivate::128-255       346470     11.42%     39.09% # Bytes accessed per row activation (Byte)
system.mem_ctrl.dram.bytesPerActivate::256-383       186517      6.15%     45.24% # Bytes accessed per row activation (Byte)
system.mem_ctrl.dram.bytesPerActivate::384-511       390519     12.87%     58.11% # Bytes accessed per row activation (Byte)
system.mem_ctrl.dram.bytesPerActivate::512-639       172153      5.67%     63.78% # Bytes accessed per row activation (Byte)
system.mem_ctrl.dram.bytesPerActivate::640-767       134764      4.44%     68.22% # Bytes accessed per row activation (Byte)
system.mem_ctrl.dram.bytesPerActivate::768-895        39977      1.32%     69.54% # Bytes accessed per row activation (Byte)
system.mem_ctrl.dram.bytesPerActivate::896-1023        97715      3.22%     72.76% # Bytes accessed per row activation (Byte)
system.mem_ctrl.dram.bytesPerActivate::1024-1151       826388     27.24%    100.00% # Bytes accessed per row activation (Byte)
system.mem_ctrl.dram.bytesPerActivate::total      3034049                       # Bytes accessed per row activation (Byte)
system.mem_ctrl.dram.dramBytesRead         1478795648                       # Total bytes read (Byte)
system.mem_ctrl.dram.dramBytesWritten         1127424                       # Total bytes written (Byte)
system.mem_ctrl.dram.avgRdBW               619.714329                       # Average DRAM read bandwidth in MiBytes/s ((Byte/Second))
system.mem_ctrl.dram.avgWrBW                 0.472466                       # Average DRAM write bandwidth in MiBytes/s ((Byte/Second))
system.mem_ctrl.dram.peakBW                  12800.00                       # Theoretical peak bandwidth in MiByte/s ((Byte/Second))
system.mem_ctrl.dram.busUtil                     4.85                       # Data bus utilization in percentage (Ratio)
system.mem_ctrl.dram.busUtilRead                 4.84                       # Data bus utilization in percentage for reads (Ratio)
system.mem_ctrl.dram.busUtilWrite                0.00                       # Data bus utilization in percentage for writes (Ratio)
system.mem_ctrl.dram.pageHitRate                86.88                       # Row buffer hit rate, read and write combined (Ratio)
system.mem_ctrl.dram.power_state.pwrStateResidencyTicks::UNDEFINED 2386253760000                       # Cumulative time (in ticks) in various power states (Tick)
system.mem_ctrl.dram.rank0.actEnergy      17832142860                       # Energy for activate commands per rank (pJ) (Joule)
system.mem_ctrl.dram.rank0.preEnergy       9477997320                       # Energy for precharge commands per rank (pJ) (Joule)
system.mem_ctrl.dram.rank0.readEnergy    127587323220                       # Energy for read commands per rank (pJ) (Joule)
system.mem_ctrl.dram.rank0.writeEnergy       56125440                       # Energy for write commands per rank (pJ) (Joule)
system.mem_ctrl.dram.rank0.refreshEnergy 188368720800.000031                       # Energy for refresh commands per rank (pJ) (Joule)
system.mem_ctrl.dram.rank0.actBackEnergy 1042033582440                       # Energy for active background per rank (pJ) (Joule)
system.mem_ctrl.dram.rank0.preBackEnergy  38819479680                       # Energy for precharge background per rank (pJ) (Joule)
system.mem_ctrl.dram.rank0.actPowerDownEnergy            0                       # Energy for active power-down per rank (pJ) (Joule)
system.mem_ctrl.dram.rank0.prePowerDownEnergy            0                       # Energy for precharge power-down per rank (pJ) (Joule)
system.mem_ctrl.dram.rank0.selfRefreshEnergy            0                       # Energy for self refresh per rank (pJ) (Joule)
system.mem_ctrl.dram.rank0.totalEnergy   1424175371760                       # Total energy per rank (pJ) (Joule)
system.mem_ctrl.dram.rank0.averagePower    596.824779                       # Core power per rank (mW) (Watt)
system.mem_ctrl.dram.rank0.totalIdleTime            0                       # Total Idle time Per DRAM Rank (Tick)
system.mem_ctrl.dram.rank0.pwrStateTime::IDLE  80130965000                       # Time in different power states (Tick)
system.mem_ctrl.dram.rank0.pwrStateTime::REF  79682200000                       # Time in different power states (Tick)
system.mem_ctrl.dram.rank0.pwrStateTime::SREF            0                       # Time in different power states (Tick)
system.mem_ctrl.dram.rank0.pwrStateTime::PRE_PDN            0                       # Time in different power states (Tick)
system.mem_ctrl.dram.rank0.pwrStateTime::ACT 2226440595000                       # Time in different power states (Tick)
system.mem_ctrl.dram.rank0.pwrStateTime::ACT_PDN            0                       # Time in different power states (Tick)
system.mem_ctrl.dram.rank1.actEnergy       3830995560                       # Energy for activate commands per rank (pJ) (Joule)
system.mem_ctrl.dram.rank1.preEnergy       2036218635                       # Energy for precharge commands per rank (pJ) (Joule)
system.mem_ctrl.dram.rank1.readEnergy     37390816260                       # Energy for read commands per rank (pJ) (Joule)
system.mem_ctrl.dram.rank1.writeEnergy       35830080                       # Energy for write commands per rank (pJ) (Joule)
system.mem_ctrl.dram.rank1.refreshEnergy 188368720800.000031                       # Energy for refresh commands per rank (pJ) (Joule)
system.mem_ctrl.dram.rank1.actBackEnergy 447792066120                       # Energy for active background per rank (pJ) (Joule)
system.mem_ctrl.dram.rank1.preBackEnergy 539233388160                       # Energy for precharge background per rank (pJ) (Joule)
system.mem_ctrl.dram.rank1.actPowerDownEnergy            0                       # Energy for active power-down per rank (pJ) (Joule)
system.mem_ctrl.dram.rank1.prePowerDownEnergy            0                       # Energy for precharge power-down per rank (pJ) (Joule)
system.mem_ctrl.dram.rank1.selfRefreshEnergy            0                       # Energy for self refresh per rank (pJ) (Joule)
system.mem_ctrl.dram.rank1.totalEnergy   1218688035615                       # Total energy per rank (pJ) (Joule)
system.mem_ctrl.dram.rank1.averagePower    510.711835                       # Core power per rank (mW) (Watt)
system.mem_ctrl.dram.rank1.totalIdleTime            0                       # Total Idle time Per DRAM Rank (Tick)
system.mem_ctrl.dram.rank1.pwrStateTime::IDLE 1395030940000                       # Time in different power states (Tick)
system.mem_ctrl.dram.rank1.pwrStateTime::REF  79682200000                       # Time in different power states (Tick)
system.mem_ctrl.dram.rank1.pwrStateTime::SREF            0                       # Time in different power states (Tick)
system.mem_ctrl.dram.rank1.pwrStateTime::PRE_PDN            0                       # Time in different power states (Tick)
system.mem_ctrl.dram.rank1.pwrStateTime::ACT 911540620000                       # Time in different power states (Tick)
system.mem_ctrl.dram.rank1.pwrStateTime::ACT_PDN            0                       # Time in different power states (Tick)
system.mem_ctrl.power_state.pwrStateResidencyTicks::UNDEFINED 2386253760000                       # Cumulative time (in ticks) in various power states (Tick)
system.membus.transDist::ReadReq             23524377                       # Transaction distribution (Count)
system.membus.transDist::ReadResp            23524376                       # Transaction distribution (Count)
system.membus.transDist::WriteReq             2318846                       # Transaction distribution (Count)
system.membus.transDist::WriteResp            2318846                       # Transaction distribution (Count)
system.membus.transDist::LockedRMWReadReq          636                       # Transaction distribution (Count)
system.membus.transDist::LockedRMWReadResp          636                       # Transaction distribution (Count)
system.membus.transDist::LockedRMWWriteReq          636                       # Transaction distribution (Count)
system.membus.transDist::LockedRMWWriteResp          636                       # Transaction distribution (Count)
system.membus.pktCount_system.cpu.icache_port::system.mem_ctrl.port     39972183                       # Packet count per connected requestor and responder (Count)
system.membus.pktCount_system.cpu.icache_port::total     39972183                       # Packet count per connected requestor and responder (Count)
system.membus.pktCount_system.cpu.dcache_port::system.mem_ctrl.port     11716806                       # Packet count per connected requestor and responder (Count)
system.membus.pktCount_system.cpu.dcache_port::total     11716806                       # Packet count per connected requestor and responder (Count)
system.membus.pktCount::total                51688989                       # Packet count per connected requestor and responder (Count)
system.membus.pktSize_system.cpu.icache_port::system.mem_ctrl.port    159888728                       # Cumulative packet size per connected requestor and responder (Byte)
system.membus.pktSize_system.cpu.icache_port::total    159888728                       # Cumulative packet size per connected requestor and responder (Byte)
system.membus.pktSize_system.cpu.dcache_port::system.mem_ctrl.port     43389930                       # Cumulative packet size per connected requestor and responder (Byte)
system.membus.pktSize_system.cpu.dcache_port::total     43389930                       # Cumulative packet size per connected requestor and responder (Byte)
system.membus.pktSize::total                203278658                       # Cumulative packet size per connected requestor and responder (Byte)
system.membus.snoops                                0                       # Total snoops (Count)
system.membus.snoopTraffic                          0                       # Total snoop traffic (Byte)
system.membus.snoopFanout::samples           25844495                       # Request fanout histogram (Count)
system.membus.snoopFanout::mean                     0                       # Request fanout histogram (Count)
system.membus.snoopFanout::stdev                    0                       # Request fanout histogram (Count)
system.membus.snoopFanout::underflows               0      0.00%      0.00% # Request fanout histogram (Count)
system.membus.snoopFanout::0                 25844495    100.00%    100.00% # Request fanout histogram (Count)
system.membus.snoopFanout::1                        0      0.00%    100.00% # Request fanout histogram (Count)
system.membus.snoopFanout::overflows                0      0.00%    100.00% # Request fanout histogram (Count)
system.membus.snoopFanout::min_value                0                       # Request fanout histogram (Count)
system.membus.snoopFanout::max_value                0                       # Request fanout histogram (Count)
system.membus.snoopFanout::total             25844495                       # Request fanout histogram (Count)
system.membus.power_state.pwrStateResidencyTicks::UNDEFINED 2386253760000                       # Cumulative time (in ticks) in various power states (Tick)
system.membus.reqLayer2.occupancy        140819885000                       # Layer occupancy (ticks) (Tick)
system.membus.reqLayer2.utilization               0.1                       # Layer utilization (Ratio)
system.membus.respLayer1.occupancy       227674997750                       # Layer occupancy (ticks) (Tick)
system.membus.respLayer1.utilization              0.1                       # Layer utilization (Ratio)
system.membus.respLayer2.occupancy        53117801250                       # Layer occupancy (ticks) (Tick)
system.membus.respLayer2.utilization              0.0                       # Layer utilization (Ratio)
system.membus.snoop_filter.totRequests              0                       # Total number of requests made to the snoop filter. (Count)
system.membus.snoop_filter.hitSingleRequests            0                       # Number of requests hitting in the snoop filter with a single holder of the requested data. (Count)
system.membus.snoop_filter.hitMultiRequests            0                       # Number of requests hitting in the snoop filter with multiple (>1) holders of the requested data. (Count)
system.membus.snoop_filter.totSnoops                0                       # Total number of snoops made to the snoop filter. (Count)
system.membus.snoop_filter.hitSingleSnoops            0                       # Number of snoops hitting in the snoop filter with a single holder of the requested data. (Count)
system.membus.snoop_filter.hitMultiSnoops            0                       # Number of snoops hitting in the snoop filter with multiple (>1) holders of the requested data. (Count)
system.workload.inst.arm                            0                       # number of arm instructions executed (Count)
system.workload.inst.quiesce                        0                       # number of quiesce instructions executed (Count)

---------- End Simulation Statistics   ----------

---------- Begin Simulation Statistics ----------
simSeconds                                   0.000250                       # Number of seconds simulated (Second)
simTicks                                    250205000                       # Number of ticks simulated (Tick)
finalTick                                2386503965000                       # Number of ticks from beginning of simulation (restored from checkpoints and never reset) (Tick)
simFreq                                  1000000000000                       # The number of ticks per simulated second ((Tick/Second))
hostSeconds                                      0.02                       # Real time elapsed on the host (Second)
hostTickRate                              13648538075                       # The number of ticks simulated per host second (ticks/s) ((Tick/Second))
hostMemory                                    8640756                       # Number of bytes of host memory used (Byte)
simInsts                                     15405744                       # Number of instructions simulated (Count)
simOps                                       27761093                       # Number of ops (including micro ops) simulated (Count)
hostInstRate                                835996527                       # Simulator instruction rate (inst/s) ((Count/Second))
hostOpRate                                 1505645569                       # Simulator op (including micro ops) rate (op/s) ((Count/Second))
system.clk_domain.clock                          5000                       # Clock period in ticks (Tick)
system.clk_domain.voltage_domain.voltage            1                       # Voltage in Volts (Volt)
system.cpu.numCycles                            50041                       # Number of cpu cycles simulated (Cycle)
system.cpu.cpi                              29.982624                       # CPI: cycles per instruction (core level) ((Cycle/Count))
system.cpu.ipc                               0.033353                       # IPC: instructions per cycle (core level) ((Count/Cycle))
system.cpu.numWorkItemsStarted                      0                       # Number of work items this cpu started (Count)
system.cpu.numWorkItemsCompleted                    0                       # Number of work items this cpu completed (Count)
system.cpu.commitStats0.numInsts                 1669                       # Number of instructions committed (thread level) (Count)
system.cpu.commitStats0.numOps                   2992                       # Number of ops (including micro ops) committed (thread level) (Count)
system.cpu.commitStats0.numInstsNotNOP              0                       # Number of instructions committed excluding NOPs or prefetches (Count)
system.cpu.commitStats0.numOpsNotNOP                0                       # Number of Ops (including micro ops) Simulated (Count)
system.cpu.commitStats0.cpi                 29.982624                       # CPI: cycles per instruction (thread level) ((Cycle/Count))
system.cpu.commitStats0.ipc                  0.033353                       # IPC: instructions per cycle (thread level) ((Count/Cycle))
system.cpu.commitStats0.numMemRefs                  0                       # Number of memory references committed (Count)
system.cpu.commitStats0.numFpInsts                881                       # Number of float instructions (Count)
system.cpu.commitStats0.numIntInsts              2502                       # Number of integer instructions (Count)
system.cpu.commitStats0.numLoadInsts              328                       # Number of load instructions (Count)
system.cpu.commitStats0.numStoreInsts             244                       # Number of store instructions (Count)
system.cpu.commitStats0.numVecInsts                 0                       # Number of vector instructions (Count)
system.cpu.commitStats0.committedInstType::No_OpClass           31      1.04%      1.04% # Class of committed instruction. (Count)
system.cpu.commitStats0.committedInstType::IntAlu         1932     64.57%     65.61% # Class of committed instruction. (Count)
system.cpu.commitStats0.committedInstType::IntMult            1      0.03%     65.64% # Class of committed instruction. (Count)
system.cpu.commitStats0.committedInstType::IntDiv            0      0.00%     65.64% # Class of committed instruction. (Count)
system.cpu.commitStats0.committedInstType::FloatAdd          243      8.12%     73.76% # Class of committed instruction. (Count)
system.cpu.commitStats0.committedInstType::FloatCmp            0      0.00%     73.76% # Class of committed instruction. (Count)
system.cpu.commitStats0.committedInstType::FloatCvt            0      0.00%     73.76% # Class of committed instruction. (Count)
system.cpu.commitStats0.committedInstType::FloatMult            0      0.00%     73.76% # Class of committed instruction. (Count)
system.cpu.commitStats0.committedInstType::FloatMultAcc            0      0.00%     73.76% # Class of committed instruction. (Count)
system.cpu.commitStats0.committedInstType::FloatDiv            0      0.00%     73.76% # Class of committed instruction. (Count)
system.cpu.commitStats0.committedInstType::FloatMisc            0      0.00%     73.76% # Class of committed instruction. (Count)
system.cpu.commitStats0.committedInstType::FloatSqrt            0      0.00%     73.76% # Class of committed instruction. (Count)
system.cpu.commitStats0.committedInstType::SimdAdd            0      0.00%     73.76% # Class of committed instruction. (Count)
system.cpu.commitStats0.committedInstType::SimdAddAcc            0      0.00%     73.76% # Class of committed instruction. (Count)
system.cpu.commitStats0.committedInstType::SimdAlu            8      0.27%     74.03% # Class of committed instruction. (Count)
system.cpu.commitStats0.committedInstType::SimdCmp            0      0.00%     74.03% # Class of committed instruction. (Count)
system.cpu.commitStats0.committedInstType::SimdCvt            2      0.07%     74.10% # Class of committed instruction. (Count)
system.cpu.commitStats0.committedInstType::SimdMisc            2      0.07%     74.16% # Class of committed instruction. (Count)
system.cpu.commitStats0.committedInstType::SimdMult            0      0.00%     74.16% # Class of committed instruction. (Count)
system.cpu.commitStats0.committedInstType::SimdMultAcc            0      0.00%     74.16% # Class of committed instruction. (Count)
system.cpu.commitStats0.committedInstType::SimdMatMultAcc            0      0.00%     74.16% # Class of committed instruction. (Count)
system.cpu.commitStats0.committedInstType::SimdShift            0      0.00%     74.16% # Class of committed instruction. (Count)
system.cpu.commitStats0.committedInstType::SimdShiftAcc            0      0.00%     74.16% # Class of committed instruction. (Count)
system.cpu.commitStats0.committedInstType::SimdDiv            0      0.00%     74.16% # Class of committed instruction. (Count)
system.cpu.commitStats0.committedInstType::SimdSqrt            0      0.00%     74.16% # Class of committed instruction. (Count)
system.cpu.commitStats0.committedInstType::SimdFloatAdd            0      0.00%     74.16% # Class of committed instruction. (Count)
system.cpu.commitStats0.committedInstType::SimdFloatAlu            0      0.00%     74.16% # Class of committed instruction. (Count)
system.cpu.commitStats0.committedInstType::SimdFloatCmp            0      0.00%     74.16% # Class of committed instruction. (Count)
system.cpu.commitStats0.committedInstType::SimdFloatCvt          201      6.72%     80.88% # Class of committed instruction. (Count)
system.cpu.commitStats0.committedInstType::SimdFloatDiv            0      0.00%     80.88% # Class of committed instruction. (Count)
system.cpu.commitStats0.committedInstType::SimdFloatMisc            0      0.00%     80.88% # Class of committed instruction. (Count)
system.cpu.commitStats0.committedInstType::SimdFloatMult            0      0.00%     80.88% # Class of committed instruction. (Count)
system.cpu.commitStats0.committedInstType::SimdFloatMultAcc            0      0.00%     80.88% # Class of committed instruction. (Count)
system.cpu.commitStats0.committedInstType::SimdFloatMatMultAcc            0      0.00%     80.88% # Class of committed instruction. (Count)
system.cpu.commitStats0.committedInstType::SimdFloatSqrt            0      0.00%     80.88% # Class of committed instruction. (Count)
system.cpu.commitStats0.committedInstType::SimdReduceAdd            0      0.00%     80.88% # Class of committed instruction. (Count)
system.cpu.commitStats0.committedInstType::SimdReduceAlu            0      0.00%     80.88% # Class of committed instruction. (Count)
system.cpu.commitStats0.committedInstType::SimdReduceCmp            0      0.00%     80.88% # Class of committed instruction. (Count)
system.cpu.commitStats0.committedInstType::SimdFloatReduceAdd            0      0.00%     80.88% # Class of committed instruction. (Count)
system.cpu.commitStats0.committedInstType::SimdFloatReduceCmp            0      0.00%     80.88% # Class of committed instruction. (Count)
system.cpu.commitStats0.committedInstType::SimdAes            0      0.00%     80.88% # Class of committed instruction. (Count)
system.cpu.commitStats0.committedInstType::SimdAesMix            0      0.00%     80.88% # Class of committed instruction. (Count)
system.cpu.commitStats0.committedInstType::SimdSha1Hash            0      0.00%     80.88% # Class of committed instruction. (Count)
system.cpu.commitStats0.committedInstType::SimdSha1Hash2            0      0.00%     80.88% # Class of committed instruction. (Count)
system.cpu.commitStats0.committedInstType::SimdSha256Hash            0      0.00%     80.88% # Class of committed instruction. (Count)
system.cpu.commitStats0.committedInstType::SimdSha256Hash2            0      0.00%     80.88% # Class of committed instruction. (Count)
system.cpu.commitStats0.committedInstType::SimdShaSigma2            0      0.00%     80.88% # Class of committed instruction. (Count)
system.cpu.commitStats0.committedInstType::SimdShaSigma3            0      0.00%     80.88% # Class of committed instruction. (Count)
system.cpu.commitStats0.committedInstType::SimdPredAlu            0      0.00%     80.88% # Class of committed instruction. (Count)
system.cpu.commitStats0.committedInstType::Matrix            0      0.00%     80.88% # Class of committed instruction. (Count)
system.cpu.commitStats0.committedInstType::MatrixMov            0      0.00%     80.88% # Class of committed instruction. (Count)
system.cpu.commitStats0.committedInstType::MatrixOP            0      0.00%     80.88% # Class of committed instruction. (Count)
system.cpu.commitStats0.committedInstType::MemRead           83      2.77%     83.66% # Class of committed instruction. (Count)
system.cpu.commitStats0.committedInstType::MemWrite           66      2.21%     85.86% # Class of committed instruction. (Count)
system.cpu.commitStats0.committedInstType::FloatMemRead          245      8.19%     94.05% # Class of committed instruction. (Count)
system.cpu.commitStats0.committedInstType::FloatMemWrite          178      5.95%    100.00% # Class of committed instruction. (Count)
system.cpu.commitStats0.committedInstType::IprAccess            0      0.00%    100.00% # Class of committed instruction. (Count)
system.cpu.commitStats0.committedInstType::InstPrefetch            0      0.00%    100.00% # Class of committed instruction. (Count)
system.cpu.commitStats0.committedInstType::SimdUnitStrideLoad            0      0.00%    100.00% # Class of committed instruction. (Count)
system.cpu.commitStats0.committedInstType::SimdUnitStrideStore            0      0.00%    100.00% # Class of committed instruction. (Count)
system.cpu.commitStats0.committedInstType::SimdUnitStrideMaskLoad            0      0.00%    100.00% # Class of committed instruction. (Count)
system.cpu.commitStats0.committedInstType::SimdUnitStrideMaskStore            0      0.00%    100.00% # Class of committed instruction. (Count)
system.cpu.commitStats0.committedInstType::SimdStridedLoad            0      0.00%    100.00% # Class of committed instruction. (Count)
system.cpu.commitStats0.committedInstType::SimdStridedStore            0      0.00%    100.00% # Class of committed instruction. (Count)
system.cpu.commitStats0.committedInstType::SimdIndexedLoad            0      0.00%    100.00% # Class of committed instruction. (Count)
system.cpu.commitStats0.committedInstType::SimdIndexedStore            0      0.00%    100.00% # Class of committed instruction. (Count)
system.cpu.commitStats0.committedInstType::SimdWholeRegisterLoad            0      0.00%    100.00% # Class of committed instruction. (Count)
system.cpu.commitStats0.committedInstType::SimdWholeRegisterStore            0      0.00%    100.00% # Class of committed instruction. (Count)
system.cpu.commitStats0.committedInstType::SimdUnitStrideFaultOnlyFirstLoad            0      0.00%    100.00% # Class of committed instruction. (Count)
system.cpu.commitStats0.committedInstType::SimdUnitStrideSegmentedLoad            0      0.00%    100.00% # Class of committed instruction. (Count)
[...]
system.mem_ctrl.dram.bwRead::cpu.data        12945299                       # Total read bandwidth from this memory ((Byte/Second))
system.mem_ctrl.dram.bwRead::total           76780793                       # Total read bandwidth from this memory ((Byte/Second))
system.mem_ctrl.dram.bwInstRead::cpu.inst     63835494                       # Instruction read bandwidth from this memory ((Byte/Second))
system.mem_ctrl.dram.bwInstRead::total       63835494                       # Instruction read bandwidth from this memory ((Byte/Second))
system.mem_ctrl.dram.bwWrite::cpu.data        7439287                       # Write bandwidth from this memory ((Byte/Second))
system.mem_ctrl.dram.bwWrite::total           7439287                       # Write bandwidth from this memory ((Byte/Second))
system.mem_ctrl.dram.bwTotal::cpu.inst       63835494                       # Total bandwidth to/from this memory ((Byte/Second))
system.mem_ctrl.dram.bwTotal::cpu.data       20384586                       # Total bandwidth to/from this memory ((Byte/Second))
system.mem_ctrl.dram.bwTotal::total          84220080                       # Total bandwidth to/from this memory ((Byte/Second))
system.mem_ctrl.dram.readBursts                 81130                       # Number of DRAM read bursts (Count)
system.mem_ctrl.dram.writeBursts                  747                       # Number of DRAM write bursts (Count)
system.mem_ctrl.dram.perBankRdBursts::0          3743                       # Per bank write bursts (Count)
system.mem_ctrl.dram.perBankRdBursts::1          3896                       # Per bank write bursts (Count)
system.mem_ctrl.dram.perBankRdBursts::2          1936                       # Per bank write bursts (Count)
system.mem_ctrl.dram.perBankRdBursts::3          3545                       # Per bank write bursts (Count)
system.mem_ctrl.dram.perBankRdBursts::4          8085                       # Per bank write bursts (Count)
system.mem_ctrl.dram.perBankRdBursts::5          6564                       # Per bank write bursts (Count)
system.mem_ctrl.dram.perBankRdBursts::6         11702                       # Per bank write bursts (Count)
system.mem_ctrl.dram.perBankRdBursts::7          3802                       # Per bank write bursts (Count)
system.mem_ctrl.dram.perBankRdBursts::8          1214                       # Per bank write bursts (Count)
system.mem_ctrl.dram.perBankRdBursts::9         11127                       # Per bank write bursts (Count)
system.mem_ctrl.dram.perBankRdBursts::10         1113                       # Per bank write bursts (Count)
system.mem_ctrl.dram.perBankRdBursts::11         2612                       # Per bank write bursts (Count)
system.mem_ctrl.dram.perBankRdBursts::12          563                       # Per bank write bursts (Count)
system.mem_ctrl.dram.perBankRdBursts::13        10695                       # Per bank write bursts (Count)
system.mem_ctrl.dram.perBankRdBursts::14         9206                       # Per bank write bursts (Count)
system.mem_ctrl.dram.perBankRdBursts::15         1327                       # Per bank write bursts (Count)
system.mem_ctrl.dram.perBankWrBursts::0             0                       # Per bank write bursts (Count)
system.mem_ctrl.dram.perBankWrBursts::1            39                       # Per bank write bursts (Count)
system.mem_ctrl.dram.perBankWrBursts::2             7                       # Per bank write bursts (Count)
system.mem_ctrl.dram.perBankWrBursts::3            20                       # Per bank write bursts (Count)
system.mem_ctrl.dram.perBankWrBursts::4            28                       # Per bank write bursts (Count)
system.mem_ctrl.dram.perBankWrBursts::5           265                       # Per bank write bursts (Count)
system.mem_ctrl.dram.perBankWrBursts::6            10                       # Per bank write bursts (Count)
system.mem_ctrl.dram.perBankWrBursts::7           208                       # Per bank write bursts (Count)
system.mem_ctrl.dram.perBankWrBursts::8            17                       # Per bank write bursts (Count)
system.mem_ctrl.dram.perBankWrBursts::9            26                       # Per bank write bursts (Count)
system.mem_ctrl.dram.perBankWrBursts::10            8                       # Per bank write bursts (Count)
system.mem_ctrl.dram.perBankWrBursts::11           38                       # Per bank write bursts (Count)
system.mem_ctrl.dram.perBankWrBursts::12           47                       # Per bank write bursts (Count)
system.mem_ctrl.dram.perBankWrBursts::13            6                       # Per bank write bursts (Count)
system.mem_ctrl.dram.perBankWrBursts::14           27                       # Per bank write bursts (Count)
system.mem_ctrl.dram.perBankWrBursts::15            1                       # Per bank write bursts (Count)
system.mem_ctrl.dram.totQLat                406621250                       # Total ticks spent queuing (Tick)
system.mem_ctrl.dram.totBusLat              405650000                       # Total ticks spent in databus transfers (Tick)
system.mem_ctrl.dram.totMemAccLat          1927808750                       # Total ticks spent from burst creation until serviced by the DRAM (Tick)
system.mem_ctrl.dram.avgQLat                  5011.97                       # Average queueing delay per DRAM burst ((Tick/Count))
system.mem_ctrl.dram.avgBusLat                5000.00                       # Average bus latency per DRAM burst ((Tick/Count))
system.mem_ctrl.dram.avgMemAccLat            23761.97                       # Average memory access latency per DRAM burst ((Tick/Count))
system.mem_ctrl.dram.readRowHits                70678                       # Number of row buffer hits during reads (Count)
system.mem_ctrl.dram.writeRowHits                 626                       # Number of row buffer hits during writes (Count)
system.mem_ctrl.dram.readRowHitRate             87.12                       # Row buffer hit rate for reads (Ratio)
system.mem_ctrl.dram.writeRowHitRate            83.80                       # Row buffer hit rate for writes (Ratio)
system.mem_ctrl.dram.bytesPerActivate::samples        10572                       # Bytes accessed per row activation (Byte)
system.mem_ctrl.dram.bytesPerActivate::mean   495.594400                       # Bytes accessed per row activation (Byte)
system.mem_ctrl.dram.bytesPerActivate::gmean   301.936080                       # Bytes accessed per row activation (Byte)
system.mem_ctrl.dram.bytesPerActivate::stdev   402.375742                       # Bytes accessed per row activation (Byte)
system.mem_ctrl.dram.bytesPerActivate::0-127         2518     23.82%     23.82% # Bytes accessed per row activation (Byte)
system.mem_ctrl.dram.bytesPerActivate::128-255         1872     17.71%     41.52% # Bytes accessed per row activation (Byte)
system.mem_ctrl.dram.bytesPerActivate::256-383          940      8.89%     50.42% # Bytes accessed per row activation (Byte)
system.mem_ctrl.dram.bytesPerActivate::384-511          626      5.92%     56.34% # Bytes accessed per row activation (Byte)
system.mem_ctrl.dram.bytesPerActivate::512-639          490      4.63%     60.97% # Bytes accessed per row activation (Byte)
system.mem_ctrl.dram.bytesPerActivate::640-767          357      3.38%     64.35% # Bytes accessed per row activation (Byte)
system.mem_ctrl.dram.bytesPerActivate::768-895          321      3.04%     67.39% # Bytes accessed per row activation (Byte)
system.mem_ctrl.dram.bytesPerActivate::896-1023          328      3.10%     70.49% # Bytes accessed per row activation (Byte)
system.mem_ctrl.dram.bytesPerActivate::1024-1151         3120     29.51%    100.00% # Bytes accessed per row activation (Byte)
system.mem_ctrl.dram.bytesPerActivate::total        10572                       # Bytes accessed per row activation (Byte)
system.mem_ctrl.dram.dramBytesRead            5192320                       # Total bytes read (Byte)
system.mem_ctrl.dram.dramBytesWritten           47808                       # Total bytes written (Byte)
system.mem_ctrl.dram.avgRdBW               620.905603                       # Average DRAM read bandwidth in MiBytes/s ((Byte/Second))
system.mem_ctrl.dram.avgWrBW                 5.716954                       # Average DRAM write bandwidth in MiBytes/s ((Byte/Second))
system.mem_ctrl.dram.peakBW                  12800.00                       # Theoretical peak bandwidth in MiByte/s ((Byte/Second))
system.mem_ctrl.dram.busUtil                     4.90                       # Data bus utilization in percentage (Ratio)
system.mem_ctrl.dram.busUtilRead                 4.85                       # Data bus utilization in percentage for reads (Ratio)
system.mem_ctrl.dram.busUtilWrite                0.04                       # Data bus utilization in percentage for writes (Ratio)
system.mem_ctrl.dram.pageHitRate                87.09                       # Row buffer hit rate, read and write combined (Ratio)
system.mem_ctrl.dram.power_state.pwrStateResidencyTicks::UNDEFINED   8362495000                       # Cumulative time (in ticks) in various power states (Tick)
system.mem_ctrl.dram.rank0.actEnergy         45553200                       # Energy for activate commands per rank (pJ) (Joule)
system.mem_ctrl.dram.rank0.preEnergy         24215895                       # Energy for precharge commands per rank (pJ) (Joule)
system.mem_ctrl.dram.rank0.readEnergy       308969220                       # Energy for read commands per rank (pJ) (Joule)
system.mem_ctrl.dram.rank0.writeEnergy        3011940                       # Energy for write commands per rank (pJ) (Joule)
system.mem_ctrl.dram.rank0.refreshEnergy 660123360.000000                       # Energy for refresh commands per rank (pJ) (Joule)
system.mem_ctrl.dram.rank0.actBackEnergy   3432929880                       # Energy for active background per rank (pJ) (Joule)
system.mem_ctrl.dram.rank0.preBackEnergy    320309760                       # Energy for precharge background per rank (pJ) (Joule)
system.mem_ctrl.dram.rank0.actPowerDownEnergy            0                       # Energy for active power-down per rank (pJ) (Joule)
system.mem_ctrl.dram.rank0.prePowerDownEnergy            0                       # Energy for precharge power-down per rank (pJ) (Joule)
system.mem_ctrl.dram.rank0.selfRefreshEnergy            0                       # Energy for self refresh per rank (pJ) (Joule)
system.mem_ctrl.dram.rank0.totalEnergy     4795113255                       # Total energy per rank (pJ) (Joule)
system.mem_ctrl.dram.rank0.averagePower    573.407010                       # Core power per rank (mW) (Watt)
system.mem_ctrl.dram.rank0.totalIdleTime            0                       # Total Idle time Per DRAM Rank (Tick)
system.mem_ctrl.dram.rank0.pwrStateTime::IDLE    799352500                       # Time in different power states (Tick)
system.mem_ctrl.dram.rank0.pwrStateTime::REF    279240000                       # Time in different power states (Tick)
system.mem_ctrl.dram.rank0.pwrStateTime::SREF            0                       # Time in different power states (Tick)
system.mem_ctrl.dram.rank0.pwrStateTime::PRE_PDN            0                       # Time in different power states (Tick)
system.mem_ctrl.dram.rank0.pwrStateTime::ACT   7283902500                       # Time in different power states (Tick)
system.mem_ctrl.dram.rank0.pwrStateTime::ACT_PDN            0                       # Time in different power states (Tick)
system.mem_ctrl.dram.rank1.actEnergy         29938020                       # Energy for activate commands per rank (pJ) (Joule)
system.mem_ctrl.dram.rank1.preEnergy         15904845                       # Energy for precharge commands per rank (pJ) (Joule)
system.mem_ctrl.dram.rank1.readEnergy       270298980                       # Energy for read commands per rank (pJ) (Joule)
system.mem_ctrl.dram.rank1.writeEnergy         887400                       # Energy for write commands per rank (pJ) (Joule)
system.mem_ctrl.dram.rank1.refreshEnergy 660123360.000000                       # Energy for refresh commands per rank (pJ) (Joule)
system.mem_ctrl.dram.rank1.actBackEnergy   3056231130                       # Energy for active background per rank (pJ) (Joule)
system.mem_ctrl.dram.rank1.preBackEnergy    637529760                       # Energy for precharge background per rank (pJ) (Joule)
system.mem_ctrl.dram.rank1.actPowerDownEnergy            0                       # Energy for active power-down per rank (pJ) (Joule)
system.mem_ctrl.dram.rank1.prePowerDownEnergy            0                       # Energy for precharge power-down per rank (pJ) (Joule)
system.mem_ctrl.dram.rank1.selfRefreshEnergy            0                       # Energy for self refresh per rank (pJ) (Joule)
system.mem_ctrl.dram.rank1.totalEnergy     4670913495                       # Total energy per rank (pJ) (Joule)
system.mem_ctrl.dram.rank1.averagePower    558.555012                       # Core power per rank (mW) (Watt)
system.mem_ctrl.dram.rank1.totalIdleTime            0                       # Total Idle time Per DRAM Rank (Tick)
system.mem_ctrl.dram.rank1.pwrStateTime::IDLE   1621720000                       # Time in different power states (Tick)
system.mem_ctrl.dram.rank1.pwrStateTime::REF    279240000                       # Time in different power states (Tick)
system.mem_ctrl.dram.rank1.pwrStateTime::SREF            0                       # Time in different power states (Tick)
system.mem_ctrl.dram.rank1.pwrStateTime::PRE_PDN            0                       # Time in different power states (Tick)
system.mem_ctrl.dram.rank1.pwrStateTime::ACT   6461535000                       # Time in different power states (Tick)
system.mem_ctrl.dram.rank1.pwrStateTime::ACT_PDN            0                       # Time in different power states (Tick)
system.mem_ctrl.power_state.pwrStateResidencyTicks::UNDEFINED   8362495000                       # Cumulative time (in ticks) in various power states (Tick)
system.membus.transDist::ReadReq                82344                       # Transaction distribution (Count)
system.membus.transDist::ReadResp               82345                       # Transaction distribution (Count)
system.membus.transDist::WriteReq                8227                       # Transaction distribution (Count)
system.membus.transDist::WriteResp               8227                       # Transaction distribution (Count)
system.membus.transDist::LockedRMWReadReq          258                       # Transaction distribution (Count)
system.membus.transDist::LockedRMWReadResp          258                       # Transaction distribution (Count)
system.membus.transDist::LockedRMWWriteReq          258                       # Transaction distribution (Count)
system.membus.transDist::LockedRMWWriteResp          258                       # Transaction distribution (Count)
system.membus.pktCount_system.cpu.icache_port::system.mem_ctrl.port       133455                       # Packet count per connected requestor and responder (Count)
system.membus.pktCount_system.cpu.icache_port::total       133455                       # Packet count per connected requestor and responder (Count)
system.membus.pktCount_system.cpu.dcache_port::system.mem_ctrl.port        48720                       # Packet count per connected requestor and responder (Count)
system.membus.pktCount_system.cpu.dcache_port::total        48720                       # Packet count per connected requestor and responder (Count)
system.membus.pktCount::total                  182175                       # Packet count per connected requestor and responder (Count)
system.membus.pktSize_system.cpu.icache_port::system.mem_ctrl.port       533824                       # Cumulative packet size per connected requestor and responder (Byte)
system.membus.pktSize_system.cpu.icache_port::total       533824                       # Cumulative packet size per connected requestor and responder (Byte)
system.membus.pktSize_system.cpu.dcache_port::system.mem_ctrl.port       170466                       # Cumulative packet size per connected requestor and responder (Byte)
system.membus.pktSize_system.cpu.dcache_port::total       170466                       # Cumulative packet size per connected requestor and responder (Byte)
system.membus.pktSize::total                   704290                       # Cumulative packet size per connected requestor and responder (Byte)
system.membus.snoops                                0                       # Total snoops (Count)
system.membus.snoopTraffic                          0                       # Total snoop traffic (Byte)
system.membus.snoopFanout::samples              91087                       # Request fanout histogram (Count)
system.membus.snoopFanout::mean                     0                       # Request fanout histogram (Count)
system.membus.snoopFanout::stdev                    0                       # Request fanout histogram (Count)
system.membus.snoopFanout::underflows               0      0.00%      0.00% # Request fanout histogram (Count)
system.membus.snoopFanout::0                    91087    100.00%    100.00% # Request fanout histogram (Count)
system.membus.snoopFanout::1                        0      0.00%    100.00% # Request fanout histogram (Count)
system.membus.snoopFanout::overflows                0      0.00%    100.00% # Request fanout histogram (Count)
system.membus.snoopFanout::min_value                0                       # Request fanout histogram (Count)
system.membus.snoopFanout::max_value                0                       # Request fanout histogram (Count)
system.membus.snoopFanout::total                91087                       # Request fanout histogram (Count)
system.membus.power_state.pwrStateResidencyTicks::UNDEFINED   8362495000                       # Cumulative time (in ticks) in various power states (Tick)
system.membus.reqLayer2.occupancy           497860000                       # Layer occupancy (ticks) (Tick)
system.membus.reqLayer2.utilization               0.1                       # Layer utilization (Ratio)
system.membus.respLayer1.occupancy          757863750                       # Layer occupancy (ticks) (Tick)
system.membus.respLayer1.utilization              0.1                       # Layer utilization (Ratio)
system.membus.respLayer2.occupancy          226666250                       # Layer occupancy (ticks) (Tick)
system.membus.respLayer2.utilization              0.0                       # Layer utilization (Ratio)
system.membus.snoop_filter.totRequests              0                       # Total number of requests made to the snoop filter. (Count)
system.membus.snoop_filter.hitSingleRequests            0                       # Number of requests hitting in the snoop filter with a single holder of the requested data. (Count)
system.membus.snoop_filter.hitMultiRequests            0                       # Number of requests hitting in the snoop filter with multiple (>1) holders of the requested data. (Count)
system.membus.snoop_filter.totSnoops                0                       # Total number of snoops made to the snoop filter. (Count)
system.membus.snoop_filter.hitSingleSnoops            0                       # Number of snoops hitting in the snoop filter with a single holder of the requested data. (Count)
system.membus.snoop_filter.hitMultiSnoops            0                       # Number of snoops hitting in the snoop filter with multiple (>1) holders of the requested data. (Count)
system.workload.inst.arm                            0                       # number of arm instructions executed (Count)
system.workload.inst.quiesce                        0                       # number of quiesce instructions executed (Count)

---------- End Simulation Statistics   ----------
