
---------- Begin Simulation Statistics ----------
simSeconds                                   1.393205                       # Number of seconds simulated (Second)
simTicks                                 1393204750000                       # Number of ticks simulated (Tick)
finalTick                                1393204750000                       # Number of ticks from beginning of simulation (restored from checkpoints and never reset) (Tick)
simFreq                                  1000000000000                       # The number of ticks per simulated second ((Tick/Second))
hostSeconds                                     36.99                       # Real time elapsed on the host (Second)
hostTickRate                              37665273328                       # The number of ticks simulated per host second (ticks/s) ((Tick/Second))
hostMemory                                    8632476                       # Number of bytes of host memory used (Byte)
simInsts                                      8305270                       # Number of instructions simulated (Count)
simOps                                       14817860                       # Number of ops (including micro ops) simulated (Count)
hostInstRate                                   224532                       # Simulator instruction rate (inst/s) ((Count/Second))
hostOpRate                                     400600                       # Simulator op (including micro ops) rate (op/s) ((Count/Second))
system.clk_domain.clock                          5000                       # Clock period in ticks (Tick)
system.clk_domain.voltage_domain.voltage            1                       # Voltage in Volts (Volt)
system.cpu.numCycles                        278640950                       # Number of cpu cycles simulated (Cycle)
system.cpu.cpi                              33.532592                       # CPI: cycles per instruction (core level) ((Cycle/Count))
system.cpu.ipc                               0.029822                       # IPC: instructions per cycle (core level) ((Count/Cycle))
system.cpu.numWorkItemsStarted                      0                       # Number of work items this cpu started (Count)
system.cpu.numWorkItemsCompleted                    0                       # Number of work items this cpu completed (Count)
system.cpu.commitStats0.numInsts              8309556                       # Number of instructions committed (thread level) (Count)
system.cpu.commitStats0.numOps               14822322                       # Number of ops (including micro ops) committed (thread level) (Count)
system.cpu.commitStats0.numInstsNotNOP              0                       # Number of instructions committed excluding NOPs or prefetches (Count)
system.cpu.commitStats0.numOpsNotNOP                0                       # Number of Ops (including micro ops) Simulated (Count)
system.cpu.commitStats0.cpi                 33.532592                       # CPI: cycles per instruction (thread level) ((Cycle/Count))
system.cpu.commitStats0.ipc                  0.029822                       # IPC: instructions per cycle (thread level) ((Count/Cycle))
system.cpu.commitStats0.numMemRefs                  0                       # Number of memory references committed (Count)
system.cpu.commitStats0.numFpInsts             200594                       # Number of float instructions (Count)
system.cpu.commitStats0.numIntInsts          14418343                       # Number of integer instructions (Count)
system.cpu.commitStats0.numLoadInsts          2456219                       # Number of load instructions (Count)
system.cpu.commitStats0.numStoreInsts         1596713                       # Number of store instructions (Count)
system.cpu.commitStats0.numVecInsts                 0                       # Number of vector instructions (Count)
system.cpu.commitStats0.committedInstType::No_OpClass       178019      1.20%      1.20% # Class of committed instruction. (Count)
system.cpu.commitStats0.committedInstType::IntAlu     10347518     69.81%     71.01% # Class of committed instruction. (Count)
system.cpu.commitStats0.committedInstType::IntMult        39780      0.27%     71.28% # Class of committed instruction. (Count)
system.cpu.commitStats0.committedInstType::IntDiv        59788      0.40%     71.68% # Class of committed instruction. (Count)
system.cpu.commitStats0.committedInstType::FloatAdd        17527      0.12%     71.80% # Class of committed instruction. (Count)
system.cpu.commitStats0.committedInstType::FloatCmp            0      0.00%     71.80% # Class of committed instruction. (Count)
system.cpu.commitStats0.committedInstType::FloatCvt         1232      0.01%     71.81% # Class of committed instruction. (Count)
system.cpu.commitStats0.committedInstType::FloatMult            0      0.00%     71.81% # Class of committed instruction. (Count)
system.cpu.commitStats0.committedInstType::FloatMultAcc            0      0.00%     71.81% # Class of committed instruction. (Count)
system.cpu.commitStats0.committedInstType::FloatDiv            0      0.00%     71.81% # Class of committed instruction. (Count)
system.cpu.commitStats0.committedInstType::FloatMisc            0      0.00%     71.81% # Class of committed instruction. (Count)
system.cpu.commitStats0.committedInstType::FloatSqrt            0      0.00%     71.81% # Class of committed instruction. (Count)
system.cpu.commitStats0.committedInstType::SimdAdd         6642      0.04%     71.85% # Class of committed instruction. (Count)
system.cpu.commitStats0.committedInstType::SimdAddAcc            0      0.00%     71.85% # Class of committed instruction. (Count)
system.cpu.commitStats0.committedInstType::SimdAlu        34946      0.24%     72.09% # Class of committed instruction. (Count)
system.cpu.commitStats0.committedInstType::SimdCmp            6      0.00%     72.09% # Class of committed instruction. (Count)
system.cpu.commitStats0.committedInstType::SimdCvt        14638      0.10%     72.19% # Class of committed instruction. (Count)
system.cpu.commitStats0.committedInstType::SimdMisc        53313      0.36%     72.55% # Class of committed instruction. (Count)
system.cpu.commitStats0.committedInstType::SimdMult            0      0.00%     72.55% # Class of committed instruction. (Count)
system.cpu.commitStats0.committedInstType::SimdMultAcc            0      0.00%     72.55% # Class of committed instruction. (Count)
system.cpu.commitStats0.committedInstType::SimdMatMultAcc            0      0.00%     72.55% # Class of committed instruction. (Count)
system.cpu.commitStats0.committedInstType::SimdShift         1833      0.01%     72.56% # Class of committed instruction. (Count)
system.cpu.commitStats0.committedInstType::SimdShiftAcc            0      0.00%     72.56% # Class of committed instruction. (Count)
system.cpu.commitStats0.committedInstType::SimdDiv            0      0.00%     72.56% # Class of committed instruction. (Count)
system.cpu.commitStats0.committedInstType::SimdSqrt            0      0.00%     72.56% # Class of committed instruction. (Count)
system.cpu.commitStats0.committedInstType::SimdFloatAdd         1665      0.01%     72.57% # Class of committed instruction. (Count)
system.cpu.commitStats0.committedInstType::SimdFloatAlu            0      0.00%     72.57% # Class of committed instruction. (Count)
system.cpu.commitStats0.committedInstType::SimdFloatCmp            0      0.00%     72.57% # Class of committed instruction. (Count)
system.cpu.commitStats0.committedInstType::SimdFloatCvt        10818      0.07%     72.65% # Class of committed instruction. (Count)
system.cpu.commitStats0.committedInstType::SimdFloatDiv          417      0.00%     72.65% # Class of committed instruction. (Count)
system.cpu.commitStats0.committedInstType::SimdFloatMisc            0      0.00%     72.65% # Class of committed instruction. (Count)
system.cpu.commitStats0.committedInstType::SimdFloatMult            0      0.00%     72.65% # Class of committed instruction. (Count)
system.cpu.commitStats0.committedInstType::SimdFloatMultAcc            0      0.00%     72.65% # Class of committed instruction. (Count)
system.cpu.commitStats0.committedInstType::SimdFloatMatMultAcc            0      0.00%     72.65% # Class of committed instruction. (Count)
system.cpu.commitStats0.committedInstType::SimdFloatSqrt         1248      0.01%     72.66% # Class of committed instruction. (Count)
system.cpu.commitStats0.committedInstType::SimdReduceAdd            0      0.00%     72.66% # Class of committed instruction. (Count)
system.cpu.commitStats0.committedInstType::SimdReduceAlu            0      0.00%     72.66% # Class of committed instruction. (Count)
system.cpu.commitStats0.committedInstType::SimdReduceCmp            0      0.00%     72.66% # Class of committed instruction. (Count)
system.cpu.commitStats0.committedInstType::SimdFloatReduceAdd            0      0.00%     72.66% # Class of committed instruction. (Count)
system.cpu.commitStats0.committedInstType::SimdFloatReduceCmp            0      0.00%     72.66% # Class of committed instruction. (Count)
system.cpu.commitStats0.committedInstType::SimdAes            0      0.00%     72.66% # Class of committed instruction. (Count)
system.cpu.commitStats0.committedInstType::SimdAesMix            0      0.00%     72.66% # Class of committed instruction. (Count)
system.cpu.commitStats0.committedInstType::SimdSha1Hash            0      0.00%     72.66% # Class of committed instruction. (Count)
system.cpu.commitStats0.committedInstType::SimdSha1Hash2            0      0.00%     72.66% # Class of committed instruction. (Count)
system.cpu.commitStats0.committedInstType::SimdSha256Hash            0      0.00%     72.66% # Class of committed instruction. (Count)
system.cpu.commitStats0.committedInstType::SimdSha256Hash2            0      0.00%     72.66% # Class of committed instruction. (Count)
system.cpu.commitStats0.committedInstType::SimdShaSigma2            0      0.00%     72.66% # Class of committed instruction. (Count)
system.cpu.commitStats0.committedInstType::SimdShaSigma3            0      0.00%     72.66% # Class of committed instruction. (Count)
system.cpu.commitStats0.committedInstType::SimdPredAlu            0      0.00%     72.66% # Class of committed instruction. (Count)
system.cpu.commitStats0.committedInstType::Matrix            0      0.00%     72.66% # Class of committed instruction. (Count)
system.cpu.commitStats0.committedInstType::MatrixMov            0      0.00%     72.66% # Class of committed instruction. (Count)
system.cpu.commitStats0.committedInstType::MatrixOP            0      0.00%     72.66% # Class of committed instruction. (Count)
system.cpu.commitStats0.committedInstType::MemRead      2430967     16.40%     89.06% # Class of committed instruction. (Count)
system.cpu.commitStats0.committedInstType::MemWrite      1581314     10.67%     99.73% # Class of committed instruction. (Count)
system.cpu.commitStats0.committedInstType::FloatMemRead        25252      0.17%     99.90% # Class of committed instruction. (Count)
system.cpu.commitStats0.committedInstType::FloatMemWrite        15399      0.10%    100.00% # Class of committed instruction. (Count)
system.cpu.commitStats0.committedInstType::IprAccess            0      0.00%    100.00% # Class of committed instruction. (Count)
system.cpu.commitStats0.committedInstType::InstPrefetch            0      0.00%    100.00% # Class of committed instruction. (Count)
system.cpu.commitStats0.committedInstType::SimdUnitStrideLoad            0      0.00%    100.00% # Class of committed instruction. (Count)
system.cpu.commitStats0.committedInstType::SimdUnitStrideStore            0      0.00%    100.00% # Class of committed instruction. (Count)
system.cpu.commitStats0.committedInstType::SimdUnitStrideMaskLoad            0      0.00%    100.00% # Class of committed instruction. (Count)
system.cpu.commitStats0.committedInstType::SimdUnitStrideMaskStore            0      0.00%    100.00% # Class of committed instruction. (Count)
system.cpu.commitStats0.committedInstType::SimdStridedLoad            0      0.00%    100.00% # Class of committed instruction. (Count)
system.cpu.commitStats0.committedInstType::SimdStridedStore            0      0.00%    100.00% # Class of committed instruction. (Count)
system.cpu.commitStats0.committedInstType::SimdIndexedLoad            0      0.00%    100.00% # Class of committed instruction. (Count)
system.cpu.commitStats0.committedInstType::SimdIndexedStore            0      0.00%    100.00% # Class of committed instruction. (Count)
system.cpu.commitStats0.committedInstType::SimdWholeRegisterLoad            0      0.00%    100.00% # Class of committed instruction. (Count)
system.cpu.commitStats0.committedInstType::SimdWholeRegisterStore            0      0.00%    100.00% # Class of committed instruction. (Count)
system.cpu.commitStats0.committedInstType::SimdUnitStrideFaultOnlyFirstLoad            0      0.00%    100.00% # Class of committed instruction. (Count)
system.cpu.commitStats0.committedInstType::SimdUnitStrideSegmentedLoad            0      0.00%    100.00% # Class of committed instruction. (Count)
system.cpu.commitStats0.committedInstType::SimdUnitStrideSegmentedStore            0      0.00%    100.00% # Class of committed instruction. (Count)
system.cpu.commitStats0.committedInstType::SimdExt            0      0.00%    100.00% # Class of committed instruction. (Count)
system.cpu.commitStats0.committedInstType::SimdFloatExt            0      0.00%    100.00% # Class of committed instruction. (Count)
system.cpu.commitStats0.committedInstType::SimdConfig            0      0.00%    100.00% # Class of committed instruction. (Count)
system.cpu.commitStats0.committedInstType::total     14822322                       # Class of committed instruction. (Count)
system.cpu.commitStats0.committedControl::IsControl      1309324                       # Class of control type instructions committed (Count)
system.cpu.commitStats0.committedControl::IsDirectControl      1082121                       # Class of control type instructions committed (Count)
system.cpu.commitStats0.committedControl::IsIndirectControl       226930                       # Class of control type instructions committed (Count)
system.cpu.commitStats0.committedControl::IsCondControl       841141                       # Class of control type instructions committed (Count)
system.cpu.commitStats0.committedControl::IsUncondControl       467910                       # Class of control type instructions committed (Count)
system.cpu.commitStats0.committedControl::IsCall       204732                       # Class of control type instructions committed (Count)
system.cpu.commitStats0.committedControl::IsReturn       204727                       # Class of control type instructions committed (Count)
system.cpu.exec_context.thread_0.numMatAluAccesses            0                       # Number of matrix alu accesses (Count)
system.cpu.exec_context.thread_0.numCallsReturns       409459                       # Number of times a function call or return occured (Count)
system.cpu.exec_context.thread_0.numMatInsts            0                       # Number of matrix instructions (Count)
system.cpu.exec_context.thread_0.numIdleCycles            0                       # Number of idle cycles (Cycle)
system.cpu.exec_context.thread_0.numBusyCycles    278640950                       # Number of busy cycles (Cycle)
system.cpu.exec_context.thread_0.notIdleFraction            1                       # Percentage of non-idle cycles (Ratio)
system.cpu.exec_context.thread_0.idleFraction            0                       # Percentage of idle cycles (Ratio)
system.cpu.executeStats0.numInsts                   0                       # Number of executed instructions (Count)
system.cpu.executeStats0.numNop                     0                       # Number of nop insts executed (Count)
system.cpu.executeStats0.numBranches                0                       # Number of branches executed (Count)
system.cpu.executeStats0.numLoadInsts               0                       # Number of load instructions executed (Count)
system.cpu.executeStats0.numStoreInsts        4052932                       # Number of stores executed (Count)
system.cpu.executeStats0.instRate                   0                       # Inst execution rate ((Count/Cycle))
system.cpu.executeStats0.numFpAluAccesses       200594                       # Number of float alu accesses (Count)
system.cpu.executeStats0.numFpRegReads         304494                       # Number of times the floating registers were read (Count)
system.cpu.executeStats0.numFpRegWrites        165184                       # Number of times the floating registers were written (Count)
system.cpu.executeStats0.numIntAluAccesses     14418343                       # Number of integer alu accesses (Count)
system.cpu.executeStats0.numIntRegReads      17866615                       # Number of times the integer registers were read (Count)
system.cpu.executeStats0.numIntRegWrites     10853001                       # Number of times the integer registers were written (Count)
system.cpu.executeStats0.numMemRefs           4052932                       # Number of memory refs (Count)
system.cpu.executeStats0.numMiscRegReads      6504525                       # Number of times the Misc registers were read (Count)
system.cpu.executeStats0.numMiscRegWrites          693                       # Number of times the Misc registers were written (Count)
system.cpu.executeStats0.numVecAluAccesses            0                       # Number of vector alu accesses (Count)
system.cpu.executeStats0.numDiscardedOps            0                       # Number of ops (including micro ops) which were discarded before commit (Count)
system.cpu.fetchStats0.numInsts               8309556                       # Number of instructions fetched (thread level) (Count)
system.cpu.fetchStats0.numOps                14822322                       # Number of ops (including micro ops) fetched (thread level) (Count)
system.cpu.fetchStats0.fetchRate             0.029822                       # Number of inst fetches per cycle ((Count/Cycle))
system.cpu.fetchStats0.numBranches            1309324                       # Number of branches fetched (Count)
system.cpu.fetchStats0.branchRate            0.004699                       # Number of branch fetches per cycle (Ratio)
system.cpu.fetchStats0.numFetchSuspends             0                       # Number of times Execute suspended instruction fetching (Count)
system.cpu.interrupts.clk_domain.clock          80000                       # Clock period in ticks (Tick)
system.cpu.mmu.dtb.rdAccesses                 2456256                       # TLB accesses on read requests (Count)
system.cpu.mmu.dtb.wrAccesses                 1596729                       # TLB accesses on write requests (Count)
system.cpu.mmu.dtb.rdMisses                      1824                       # TLB misses on read requests (Count)
system.cpu.mmu.dtb.wrMisses                       774                       # TLB misses on write requests (Count)
system.cpu.mmu.dtb.walker.power_state.pwrStateResidencyTicks::UNDEFINED 1393204750000                       # Cumulative time (in ticks) in various power states (Tick)
system.cpu.mmu.itb.rdAccesses                       0                       # TLB accesses on read requests (Count)
system.cpu.mmu.itb.wrAccesses                11168360                       # TLB accesses on write requests (Count)
system.cpu.mmu.itb.rdMisses                         0                       # TLB misses on read requests (Count)
system.cpu.mmu.itb.wrMisses                       492                       # TLB misses on write requests (Count)
system.cpu.mmu.itb.walker.power_state.pwrStateResidencyTicks::UNDEFINED 1393204750000                       # Cumulative time (in ticks) in various power states (Tick)
system.cpu.power_state.pwrStateResidencyTicks::ON 1393204750000                       # Cumulative time (in ticks) in various power states (Tick)
system.cpu.thread_0.numInsts                        0                       # Number of Instructions committed (Count)
system.cpu.thread_0.numOps                          0                       # Number of Ops committed (Count)
system.cpu.thread_0.numMemRefs                      0                       # Number of Memory References (Count)
system.cpu.workload.numSyscalls                  3856                       # Number of system calls (Count)
system.mem_ctrl.avgPriority_cpu.inst::samples  11168245.00                       # Average QoS priority value for accepted requests (Count)
system.mem_ctrl.avgPriority_cpu.data::samples   2270667.00                       # Average QoS priority value for accepted requests (Count)
system.mem_ctrl.priorityMinLatency       0.000000018750                       # per QoS priority minimum request to response latency (Second)
system.mem_ctrl.priorityMaxLatency       0.037491152500                       # per QoS priority maximum request to response latency (Second)
system.mem_ctrl.numReadWriteTurnArounds          5776                       # Number of turnarounds from READ to WRITE (Count)
system.mem_ctrl.numWriteReadTurnArounds          5776                       # Number of turnarounds from WRITE to READ (Count)
system.mem_ctrl.numStayReadState             28626628                       # Number of times bus staying in READ state (Count)
system.mem_ctrl.numStayWriteState               95410                       # Number of times bus staying in WRITE state (Count)
system.mem_ctrl.readReqs                     13624253                       # Number of read requests accepted (Count)
system.mem_ctrl.writeReqs                     1596370                       # Number of write requests accepted (Count)
system.mem_ctrl.readBursts                   13624253                       # Number of controller read bursts, including those serviced by the write queue (Count)
system.mem_ctrl.writeBursts                   1596370                       # Number of controller write bursts, including those merged in the write queue (Count)
system.mem_ctrl.servicedByWrQ                  286400                       # Number of controller read bursts serviced by the write queue (Count)
system.mem_ctrl.mergedWrBursts                1495311                       # Number of controller write bursts merged with an existing one (Count)
system.mem_ctrl.neitherReadNorWriteReqs             0                       # Number of requests that are neither read nor write (Count)
system.mem_ctrl.avgRdQLen                        1.00                       # Average read queue length when enqueuing ((Count/Tick))
system.mem_ctrl.avgWrQLen                       25.64                       # Average write queue length when enqueuing ((Count/Tick))
system.mem_ctrl.numRdRetry                          0                       # Number of times read queue was full causing retry (Count)
system.mem_ctrl.numWrRetry                          0                       # Number of times write queue was full causing retry (Count)
system.mem_ctrl.readPktSize::0                 328254                       # Read request sizes (log2) (Count)
system.mem_ctrl.readPktSize::1                  20609                       # Read request sizes (log2) (Count)
system.mem_ctrl.readPktSize::2                 238303                       # Read request sizes (log2) (Count)
system.mem_ctrl.readPktSize::3               13037087                       # Read request sizes (log2) (Count)
system.mem_ctrl.readPktSize::4                      0                       # Read request sizes (log2) (Count)
system.mem_ctrl.readPktSize::5                      0                       # Read request sizes (log2) (Count)
system.mem_ctrl.readPktSize::6                      0                       # Read request sizes (log2) (Count)
system.mem_ctrl.writePktSize::0                111316                       # Write request sizes (log2) (Count)
system.mem_ctrl.writePktSize::1                 25737                       # Write request sizes (log2) (Count)
system.mem_ctrl.writePktSize::2                115320                       # Write request sizes (log2) (Count)
system.mem_ctrl.writePktSize::3               1343997                       # Write request sizes (log2) (Count)
system.mem_ctrl.writePktSize::4                     0                       # Write request sizes (log2) (Count)
system.mem_ctrl.writePktSize::5                     0                       # Write request sizes (log2) (Count)
system.mem_ctrl.writePktSize::6                     0                       # Write request sizes (log2) (Count)
system.mem_ctrl.rdQLenPdf::0                 13337818                       # What read queue length does an incoming req see (Count)
system.mem_ctrl.rdQLenPdf::1                       35                       # What read queue length does an incoming req see (Count)
system.mem_ctrl.rdQLenPdf::2                        0                       # What read queue length does an incoming req see (Count)
system.mem_ctrl.rdQLenPdf::3                        0                       # What read queue length does an incoming req see (Count)
system.mem_ctrl.rdQLenPdf::4                        0                       # What read queue length does an incoming req see (Count)
system.mem_ctrl.rdQLenPdf::5                        0                       # What read queue length does an incoming req see (Count)
system.mem_ctrl.rdQLenPdf::6                        0                       # What read queue length does an incoming req see (Count)
system.mem_ctrl.rdQLenPdf::7                        0                       # What read queue length does an incoming req see (Count)
system.mem_ctrl.rdQLenPdf::8                        0                       # What read queue length does an incoming req see (Count)
system.mem_ctrl.rdQLenPdf::9                        0                       # What read queue length does an incoming req see (Count)
system.mem_ctrl.rdQLenPdf::10                       0                       # What read queue length does an incoming req see (Count)
system.mem_ctrl.rdQLenPdf::11                       0                       # What read queue length does an incoming req see (Count)
system.mem_ctrl.rdQLenPdf::12                       0                       # What read queue length does an incoming req see (Count)
system.mem_ctrl.rdQLenPdf::13                       0                       # What read queue length does an incoming req see (Count)
system.mem_ctrl.rdQLenPdf::14                       0                       # What read queue length does an incoming req see (Count)
system.mem_ctrl.rdQLenPdf::15                       0                       # What read queue length does an incoming req see (Count)
system.mem_ctrl.rdQLenPdf::16                       0                       # What read queue length does an incoming req see (Count)
system.mem_ctrl.rdQLenPdf::17                       0                       # What read queue length does an incoming req see (Count)
system.mem_ctrl.rdQLenPdf::18                       0                       # What read queue length does an incoming req see (Count)
system.mem_ctrl.rdQLenPdf::19                       0                       # What read queue length does an incoming req see (Count)
system.mem_ctrl.rdQLenPdf::20                       0                       # What read queue length does an incoming req see (Count)
system.mem_ctrl.rdQLenPdf::21                       0                       # What read queue length does an incoming req see (Count)
system.mem_ctrl.rdQLenPdf::22                       0                       # What read queue length does an incoming req see (Count)
system.mem_ctrl.rdQLenPdf::23                       0                       # What read queue length does an incoming req see (Count)
system.mem_ctrl.rdQLenPdf::24                       0                       # What read queue length does an incoming req see (Count)
system.mem_ctrl.rdQLenPdf::25                       0                       # What read queue length does an incoming req see (Count)
system.mem_ctrl.rdQLenPdf::26                       0                       # What read queue length does an incoming req see (Count)
system.mem_ctrl.rdQLenPdf::27                       0                       # What read queue length does an incoming req see (Count)
system.mem_ctrl.rdQLenPdf::28                       0                       # What read queue length does an incoming req see (Count)
system.mem_ctrl.rdQLenPdf::29                       0                       # What read queue length does an incoming req see (Count)
system.mem_ctrl.rdQLenPdf::30                       0                       # What read queue length does an incoming req see (Count)
system.mem_ctrl.rdQLenPdf::31                       0                       # What read queue length does an incoming req see (Count)
system.mem_ctrl.wrQLenPdf::0                        1                       # What write queue length does an incoming req see (Count)
system.mem_ctrl.wrQLenPdf::1                        1                       # What write queue length does an incoming req see (Count)
system.mem_ctrl.wrQLenPdf::2                        1                       # What write queue length does an incoming req see (Count)
system.mem_ctrl.wrQLenPdf::3                        1                       # What write queue length does an incoming req see (Count)
system.mem_ctrl.wrQLenPdf::4                        1                       # What write queue length does an incoming req see (Count)
system.mem_ctrl.wrQLenPdf::5                        1                       # What write queue length does an incoming req see (Count)
system.mem_ctrl.wrQLenPdf::6                        1                       # What write queue length does an incoming req see (Count)
system.mem_ctrl.wrQLenPdf::7                        1                       # What write queue length does an incoming req see (Count)
system.mem_ctrl.wrQLenPdf::8                        1                       # What write queue length does an incoming req see (Count)
system.mem_ctrl.wrQLenPdf::9                        1                       # What write queue length does an incoming req see (Count)
system.mem_ctrl.wrQLenPdf::10                       1                       # What write queue length does an incoming req see (Count)
system.mem_ctrl.wrQLenPdf::11                       1                       # What write queue length does an incoming req see (Count)
system.mem_ctrl.wrQLenPdf::12                       1                       # What write queue length does an incoming req see (Count)
system.mem_ctrl.wrQLenPdf::13                       1                       # What write queue length does an incoming req see (Count)
system.mem_ctrl.wrQLenPdf::14                       1                       # What write queue length does an incoming req see (Count)
system.mem_ctrl.wrQLenPdf::15                    3169                       # What write queue length does an incoming req see (Count)
system.mem_ctrl.wrQLenPdf::16                    5450                       # What write queue length does an incoming req see (Count)
system.mem_ctrl.wrQLenPdf::17                    5778                       # What write queue length does an incoming req see (Count)
system.mem_ctrl.wrQLenPdf::18                    5778                       # What write queue length does an incoming req see (Count)
system.mem_ctrl.wrQLenPdf::19                    5777                       # What write queue length does an incoming req see (Count)
system.mem_ctrl.wrQLenPdf::20                    5777                       # What write queue length does an incoming req see (Count)
system.mem_ctrl.wrQLenPdf::21                    5777                       # What write queue length does an incoming req see (Count)
system.mem_ctrl.wrQLenPdf::22                    5777                       # What write queue length does an incoming req see (Count)
system.mem_ctrl.wrQLenPdf::23                    5777                       # What write queue length does an incoming req see (Count)
system.mem_ctrl.wrQLenPdf::24                    5776                       # What write queue length does an incoming req see (Count)
system.mem_ctrl.wrQLenPdf::25                    5776                       # What write queue length does an incoming req see (Count)
system.mem_ctrl.wrQLenPdf::26                    5776                       # What write queue length does an incoming req see (Count)
system.mem_ctrl.wrQLenPdf::27                    5776                       # What write queue length does an incoming req see (Count)
system.mem_ctrl.wrQLenPdf::28                    5776                       # What write queue length does an incoming req see (Count)
system.mem_ctrl.wrQLenPdf::29                    5776                       # What write queue length does an incoming req see (Count)
system.mem_ctrl.wrQLenPdf::30                    5776                       # What write queue length does an incoming req see (Count)
system.mem_ctrl.wrQLenPdf::31                    5776                       # What write queue length does an incoming req see (Count)
system.mem_ctrl.wrQLenPdf::32                    5776                       # What write queue length does an incoming req see (Count)
system.mem_ctrl.wrQLenPdf::33                       0                       # What write queue length does an incoming req see (Count)
system.mem_ctrl.wrQLenPdf::34                       0                       # What write queue length does an incoming req see (Count)
system.mem_ctrl.wrQLenPdf::35                       0                       # What write queue length does an incoming req see (Count)
system.mem_ctrl.wrQLenPdf::36                       0                       # What write queue length does an incoming req see (Count)
system.mem_ctrl.wrQLenPdf::37                       0                       # What write queue length does an incoming req see (Count)
system.mem_ctrl.wrQLenPdf::38                       0                       # What write queue length does an incoming req see (Count)
system.mem_ctrl.wrQLenPdf::39                       0                       # What write queue length does an incoming req see (Count)
system.mem_ctrl.wrQLenPdf::40                       0                       # What write queue length does an incoming req see (Count)
system.mem_ctrl.wrQLenPdf::41                       0                       # What write queue length does an incoming req see (Count)
system.mem_ctrl.wrQLenPdf::42                       0                       # What write queue length does an incoming req see (Count)
system.mem_ctrl.wrQLenPdf::43                       0                       # What write queue length does an incoming req see (Count)
system.mem_ctrl.wrQLenPdf::44                       0                       # What write queue length does an incoming req see (Count)
system.mem_ctrl.wrQLenPdf::45                       0                       # What write queue length does an incoming req see (Count)
system.mem_ctrl.wrQLenPdf::46                       0                       # What write queue length does an incoming req see (Count)
system.mem_ctrl.wrQLenPdf::47                       0                       # What write queue length does an incoming req see (Count)
system.mem_ctrl.wrQLenPdf::48                       0                       # What write queue length does an incoming req see (Count)
system.mem_ctrl.wrQLenPdf::49                       0                       # What write queue length does an incoming req see (Count)
system.mem_ctrl.wrQLenPdf::50                       0                       # What write queue length does an incoming req see (Count)
system.mem_ctrl.wrQLenPdf::51                       0                       # What write queue length does an incoming req see (Count)
system.mem_ctrl.wrQLenPdf::52                       0                       # What write queue length does an incoming req see (Count)
system.mem_ctrl.wrQLenPdf::53                       0                       # What write queue length does an incoming req see (Count)
system.mem_ctrl.wrQLenPdf::54                       0                       # What write queue length does an incoming req see (Count)
system.mem_ctrl.wrQLenPdf::55                       0                       # What write queue length does an incoming req see (Count)
system.mem_ctrl.wrQLenPdf::56                       0                       # What write queue length does an incoming req see (Count)
system.mem_ctrl.wrQLenPdf::57                       0                       # What write queue length does an incoming req see (Count)
system.mem_ctrl.wrQLenPdf::58                       0                       # What write queue length does an incoming req see (Count)
system.mem_ctrl.wrQLenPdf::59                       0                       # What write queue length does an incoming req see (Count)
system.mem_ctrl.wrQLenPdf::60                       0                       # What write queue length does an incoming req see (Count)
system.mem_ctrl.wrQLenPdf::61                       0                       # What write queue length does an incoming req see (Count)
system.mem_ctrl.wrQLenPdf::62                       0                       # What write queue length does an incoming req see (Count)
system.mem_ctrl.wrQLenPdf::63                       0                       # What write queue length does an incoming req see (Count)
system.mem_ctrl.rdPerTurnAround::samples         5776                       # Reads before turning the bus around for writes (Count)
system.mem_ctrl.rdPerTurnAround::mean     2309.032375                       # Reads before turning the bus around for writes (Count)
system.mem_ctrl.rdPerTurnAround::stdev    4380.796711                       # Reads before turning the bus around for writes (Count)
system.mem_ctrl.rdPerTurnAround::0-4095          5360     92.80%     92.80% # Reads before turning the bus around for writes (Count)
system.mem_ctrl.rdPerTurnAround::4096-8191          301      5.21%     98.01% # Reads before turning the bus around for writes (Count)
system.mem_ctrl.rdPerTurnAround::8192-12287           26      0.45%     98.46% # Reads before turning the bus around for writes (Count)
system.mem_ctrl.rdPerTurnAround::12288-16383           20      0.35%     98.81% # Reads before turning the bus around for writes (Count)
system.mem_ctrl.rdPerTurnAround::16384-20479           15      0.26%     99.07% # Reads before turning the bus around for writes (Count)
system.mem_ctrl.rdPerTurnAround::20480-24575            9      0.16%     99.22% # Reads before turning the bus around for writes (Count)
system.mem_ctrl.rdPerTurnAround::24576-28671            4      0.07%     99.29% # Reads before turning the bus around for writes (Count)
system.mem_ctrl.rdPerTurnAround::28672-32767            9      0.16%     99.45% # Reads before turning the bus around for writes (Count)
system.mem_ctrl.rdPerTurnAround::32768-36863           10      0.17%     99.62% # Reads before turning the bus around for writes (Count)
system.mem_ctrl.rdPerTurnAround::36864-40959            4      0.07%     99.69% # Reads before turning the bus around for writes (Count)
system.mem_ctrl.rdPerTurnAround::40960-45055            3      0.05%     99.74% # Reads before turning the bus around for writes (Count)
system.mem_ctrl.rdPerTurnAround::45056-49151            4      0.07%     99.81% # Reads before turning the bus around for writes (Count)
system.mem_ctrl.rdPerTurnAround::49152-53247            2      0.03%     99.84% # Reads before turning the bus around for writes (Count)
system.mem_ctrl.rdPerTurnAround::53248-57343            2      0.03%     99.88% # Reads before turning the bus around for writes (Count)
system.mem_ctrl.rdPerTurnAround::61440-65535            1      0.02%     99.90% # Reads before turning the bus around for writes (Count)
system.mem_ctrl.rdPerTurnAround::65536-69631            1      0.02%     99.91% # Reads before turning the bus around for writes (Count)
system.mem_ctrl.rdPerTurnAround::69632-73727            2      0.03%     99.95% # Reads before turning the bus around for writes (Count)
system.mem_ctrl.rdPerTurnAround::73728-77823            1      0.02%     99.97% # Reads before turning the bus around for writes (Count)
system.mem_ctrl.rdPerTurnAround::77824-81919            1      0.02%     99.98% # Reads before turning the bus around for writes (Count)
system.mem_ctrl.rdPerTurnAround::106496-110591            1      0.02%    100.00% # Reads before turning the bus around for writes (Count)
system.mem_ctrl.rdPerTurnAround::total           5776                       # Reads before turning the bus around for writes (Count)
system.mem_ctrl.wrPerTurnAround::samples         5776                       # Writes before turning the bus around for reads (Count)
system.mem_ctrl.wrPerTurnAround::mean       17.492209                       # Writes before turning the bus around for reads (Count)
system.mem_ctrl.wrPerTurnAround::gmean      17.481598                       # Writes before turning the bus around for reads (Count)
system.mem_ctrl.wrPerTurnAround::stdev       0.603833                       # Writes before turning the bus around for reads (Count)
system.mem_ctrl.wrPerTurnAround::16               328      5.68%      5.68% # Writes before turning the bus around for reads (Count)
system.mem_ctrl.wrPerTurnAround::17              2280     39.47%     45.15% # Writes before turning the bus around for reads (Count)
system.mem_ctrl.wrPerTurnAround::18              3165     54.80%     99.95% # Writes before turning the bus around for reads (Count)
system.mem_ctrl.wrPerTurnAround::19                 3      0.05%    100.00% # Writes before turning the bus around for reads (Count)
system.mem_ctrl.wrPerTurnAround::total           5776                       # Writes before turning the bus around for reads (Count)
system.mem_ctrl.bytesReadWrQ                 18329600                       # Total number of bytes read from write queue (Byte)
system.mem_ctrl.bytesReadSys                105619316                       # Total read bytes from the system interface side (Byte)
system.mem_ctrl.bytesWrittenSys              11376030                       # Total written bytes from the system interface side (Byte)
system.mem_ctrl.avgRdBWSys               75810332.97510649                       # Average system read bandwidth in Byte/s ((Byte/Second))
system.mem_ctrl.avgWrBWSys               8165368.37101654                       # Average system write bandwidth in Byte/s ((Byte/Second))
system.mem_ctrl.totGap                   1393204630000                       # Total gap between requests (Tick)
system.mem_ctrl.avgGap                       91534.01                       # Average gap between requests ((Tick/Count))
system.mem_ctrl.requestorReadBytes::cpu.inst     89345960                       # Per-requestor bytes read from memory (Byte)
system.mem_ctrl.requestorReadBytes::cpu.data     14238758                       # Per-requestor bytes read from memory (Byte)
system.mem_ctrl.requestorWriteBytes::cpu.data       741091                       # Per-requestor bytes write to memory (Byte)
system.mem_ctrl.requestorReadRate::cpu.inst 64129812.936684288085                       # Per-requestor bytes read from memory rate ((Byte/Second))
system.mem_ctrl.requestorReadRate::cpu.data 10220147.469350790605                       # Per-requestor bytes read from memory rate ((Byte/Second))
system.mem_ctrl.requestorWriteRate::cpu.data 531932.582055867999                       # Per-requestor bytes write to memory rate ((Byte/Second))
system.mem_ctrl.requestorReadAccesses::cpu.inst     11168245                       # Per-requestor read serviced memory accesses (Count)
system.mem_ctrl.requestorReadAccesses::cpu.data      2456008                       # Per-requestor read serviced memory accesses (Count)
system.mem_ctrl.requestorWriteAccesses::cpu.data      1596370                       # Per-requestor write serviced memory accesses (Count)
system.mem_ctrl.requestorReadTotalLat::cpu.inst 259867870000                       # Per-requestor read total memory access latency (Tick)
system.mem_ctrl.requestorReadTotalLat::cpu.data  59499636250                       # Per-requestor read total memory access latency (Tick)
system.mem_ctrl.requestorWriteTotalLat::cpu.data 35281005747750                       # Per-requestor write total memory access latency (Tick)
system.mem_ctrl.requestorReadAvgLat::cpu.inst     23268.46                       # Per-requestor read average memory access latency ((Tick/Count))
system.mem_ctrl.requestorReadAvgLat::cpu.data     24226.16                       # Per-requestor read average memory access latency ((Tick/Count))
system.mem_ctrl.requestorWriteAvgLat::cpu.data  22100769.71                       # Per-requestor write average memory access latency ((Tick/Count))
system.mem_ctrl.dram.bytesRead::cpu.inst     89345952                       # Number of bytes read from this memory (Byte)
system.mem_ctrl.dram.bytesRead::cpu.data     16273356                       # Number of bytes read from this memory (Byte)
system.mem_ctrl.dram.bytesRead::total       105619308                       # Number of bytes read from this memory (Byte)
system.mem_ctrl.dram.bytesInstRead::cpu.inst     89345952                       # Number of instructions bytes read from this memory (Byte)
system.mem_ctrl.dram.bytesInstRead::total     89345952                       # Number of instructions bytes read from this memory (Byte)
system.mem_ctrl.dram.bytesWritten::cpu.data     11376030                       # Number of bytes written to this memory (Byte)
system.mem_ctrl.dram.bytesWritten::total     11376030                       # Number of bytes written to this memory (Byte)
system.mem_ctrl.dram.numReads::cpu.inst      11168244                       # Number of read requests responded to by this memory (Count)
system.mem_ctrl.dram.numReads::cpu.data       2456008                       # Number of read requests responded to by this memory (Count)
system.mem_ctrl.dram.numReads::total         13624252                       # Number of read requests responded to by this memory (Count)
system.mem_ctrl.dram.numWrites::cpu.data      1596370                       # Number of write requests responded to by this memory (Count)
system.mem_ctrl.dram.numWrites::total         1596370                       # Number of write requests responded to by this memory (Count)
system.mem_ctrl.dram.bwRead::cpu.inst        64129807                       # Total read bandwidth from this memory ((Byte/Second))
system.mem_ctrl.dram.bwRead::cpu.data        11680520                       # Total read bandwidth from this memory ((Byte/Second))
system.mem_ctrl.dram.bwRead::total           75810327                       # Total read bandwidth from this memory ((Byte/Second))
system.mem_ctrl.dram.bwInstRead::cpu.inst     64129807                       # Instruction read bandwidth from this memory ((Byte/Second))
system.mem_ctrl.dram.bwInstRead::total       64129807                       # Instruction read bandwidth from this memory ((Byte/Second))
system.mem_ctrl.dram.bwWrite::cpu.data        8165368                       # Write bandwidth from this memory ((Byte/Second))
system.mem_ctrl.dram.bwWrite::total           8165368                       # Write bandwidth from this memory ((Byte/Second))
system.mem_ctrl.dram.bwTotal::cpu.inst       64129807                       # Total bandwidth to/from this memory ((Byte/Second))
system.mem_ctrl.dram.bwTotal::cpu.data       19845888                       # Total bandwidth to/from this memory ((Byte/Second))
system.mem_ctrl.dram.bwTotal::total          83975696                       # Total bandwidth to/from this memory ((Byte/Second))
system.mem_ctrl.dram.readBursts              13337853                       # Number of DRAM read bursts (Count)
system.mem_ctrl.dram.writeBursts               101035                       # Number of DRAM write bursts (Count)
system.mem_ctrl.dram.perBankRdBursts::0       1402904                       # Per bank write bursts (Count)
system.mem_ctrl.dram.perBankRdBursts::1       2620289                       # Per bank write bursts (Count)
system.mem_ctrl.dram.perBankRdBursts::2         66725                       # Per bank write bursts (Count)
system.mem_ctrl.dram.perBankRdBursts::3        944862                       # Per bank write bursts (Count)
system.mem_ctrl.dram.perBankRdBursts::4        444760                       # Per bank write bursts (Count)
system.mem_ctrl.dram.perBankRdBursts::5        664426                       # Per bank write bursts (Count)
system.mem_ctrl.dram.perBankRdBursts::6        881187                       # Per bank write bursts (Count)
system.mem_ctrl.dram.perBankRdBursts::7        464511                       # Per bank write bursts (Count)
system.mem_ctrl.dram.perBankRdBursts::8       3030157                       # Per bank write bursts (Count)
system.mem_ctrl.dram.perBankRdBursts::9       1486770                       # Per bank write bursts (Count)
system.mem_ctrl.dram.perBankRdBursts::10        74591                       # Per bank write bursts (Count)
system.mem_ctrl.dram.perBankRdBursts::11       627711                       # Per bank write bursts (Count)
system.mem_ctrl.dram.perBankRdBursts::12        32172                       # Per bank write bursts (Count)
system.mem_ctrl.dram.perBankRdBursts::13       449191                       # Per bank write bursts (Count)
system.mem_ctrl.dram.perBankRdBursts::14        61852                       # Per bank write bursts (Count)
system.mem_ctrl.dram.perBankRdBursts::15        85745                       # Per bank write bursts (Count)
system.mem_ctrl.dram.perBankWrBursts::0         54503                       # Per bank write bursts (Count)
system.mem_ctrl.dram.perBankWrBursts::1         12291                       # Per bank write bursts (Count)
system.mem_ctrl.dram.perBankWrBursts::2           809                       # Per bank write bursts (Count)
system.mem_ctrl.dram.perBankWrBursts::3           808                       # Per bank write bursts (Count)
system.mem_ctrl.dram.perBankWrBursts::4          4573                       # Per bank write bursts (Count)
system.mem_ctrl.dram.perBankWrBursts::5         11720                       # Per bank write bursts (Count)
system.mem_ctrl.dram.perBankWrBursts::6           910                       # Per bank write bursts (Count)
system.mem_ctrl.dram.perBankWrBursts::7          2564                       # Per bank write bursts (Count)
system.mem_ctrl.dram.perBankWrBursts::8          1988                       # Per bank write bursts (Count)
system.mem_ctrl.dram.perBankWrBursts::9          1396                       # Per bank write bursts (Count)
system.mem_ctrl.dram.perBankWrBursts::10         3577                       # Per bank write bursts (Count)
system.mem_ctrl.dram.perBankWrBursts::11         1312                       # Per bank write bursts (Count)
system.mem_ctrl.dram.perBankWrBursts::12         1249                       # Per bank write bursts (Count)
system.mem_ctrl.dram.perBankWrBursts::13          995                       # Per bank write bursts (Count)
system.mem_ctrl.dram.perBankWrBursts::14         1047                       # Per bank write bursts (Count)
system.mem_ctrl.dram.perBankWrBursts::15         1293                       # Per bank write bursts (Count)
system.mem_ctrl.dram.totQLat              69282762500                       # Total ticks spent queuing (Tick)
system.mem_ctrl.dram.totBusLat            66689265000                       # Total ticks spent in databus transfers (Tick)
system.mem_ctrl.dram.totMemAccLat        319367506250                       # Total ticks spent from burst creation until serviced by the DRAM (Tick)
system.mem_ctrl.dram.avgQLat                  5194.45                       # Average queueing delay per DRAM burst ((Tick/Count))
system.mem_ctrl.dram.avgBusLat                5000.00                       # Average bus latency per DRAM burst ((Tick/Count))
system.mem_ctrl.dram.avgMemAccLat            23944.45                       # Average memory access latency per DRAM burst ((Tick/Count))
system.mem_ctrl.dram.readRowHits             11599132                       # Number of row buffer hits during reads (Count)
system.mem_ctrl.dram.writeRowHits               86196                       # Number of row buffer hits during writes (Count)
system.mem_ctrl.dram.readRowHitRate             86.96                       # Row buffer hit rate for reads (Ratio)
system.mem_ctrl.dram.writeRowHitRate            85.31                       # Row buffer hit rate for writes (Ratio)
system.mem_ctrl.dram.bytesPerActivate::samples      1753555                       # Bytes accessed per row activation (Byte)
system.mem_ctrl.dram.bytesPerActivate::mean   490.482404                       # Bytes accessed per row activation (Byte)
system.mem_ctrl.dram.bytesPerActivate::gmean   296.672953                       # Bytes accessed per row activation (Byte)
system.mem_ctrl.dram.bytesPerActivate::stdev   399.901778                       # Bytes accessed per row activation (Byte)
system.mem_ctrl.dram.bytesPerActivate::0-127       455383     25.97%     25.97% # Bytes accessed per row activation (Byte)
system.mem_ctrl.dram.bytesPerActivate::128-255       260950     14.88%     40.85% # Bytes accessed per row activation (Byte)
system.mem_ctrl.dram.bytesPerActivate::256-383       170703      9.73%     50.59% # Bytes accessed per row activation (Byte)
system.mem_ctrl.dram.bytesPerActivate::384-511       108317      6.18%     56.76% # Bytes accessed per row activation (Byte)
system.mem_ctrl.dram.bytesPerActivate::512-639        70771      4.04%     60.80% # Bytes accessed per row activation (Byte)
system.mem_ctrl.dram.bytesPerActivate::640-767        78845      4.50%     65.29% # Bytes accessed per row activation (Byte)
system.mem_ctrl.dram.bytesPerActivate::768-895        59830      3.41%     68.71% # Bytes accessed per row activation (Byte)
system.mem_ctrl.dram.bytesPerActivate::896-1023        47759      2.72%     71.43% # Bytes accessed per row activation (Byte)
system.mem_ctrl.dram.bytesPerActivate::1024-1151       500997     28.57%    100.00% # Bytes accessed per row activation (Byte)
system.mem_ctrl.dram.bytesPerActivate::total      1753555                       # Bytes accessed per row activation (Byte)
system.mem_ctrl.dram.dramBytesRead          853622592                       # Total bytes read (Byte)
system.mem_ctrl.dram.dramBytesWritten         6466240                       # Total bytes written (Byte)
system.mem_ctrl.dram.avgRdBW               612.704337                       # Average DRAM read bandwidth in MiBytes/s ((Byte/Second))
system.mem_ctrl.dram.avgWrBW                 4.641270                       # Average DRAM write bandwidth in MiBytes/s ((Byte/Second))
system.mem_ctrl.dram.peakBW                  12800.00                       # Theoretical peak bandwidth in MiByte/s ((Byte/Second))
system.mem_ctrl.dram.busUtil                     4.82                       # Data bus utilization in percentage (Ratio)
system.mem_ctrl.dram.busUtilRead                 4.79                       # Data bus utilization in percentage for reads (Ratio)
system.mem_ctrl.dram.busUtilWrite                0.04                       # Data bus utilization in percentage for writes (Ratio)
system.mem_ctrl.dram.pageHitRate                86.95                       # Row buffer hit rate, read and write combined (Ratio)
system.mem_ctrl.dram.power_state.pwrStateResidencyTicks::UNDEFINED 1393204750000                       # Cumulative time (in ticks) in various power states (Tick)
system.mem_ctrl.dram.rank0.actEnergy       7764914220                       # Energy for activate commands per rank (pJ) (Joule)
system.mem_ctrl.dram.rank0.preEnergy       4127142195                       # Energy for precharge commands per rank (pJ) (Joule)
system.mem_ctrl.dram.rank0.readEnergy     53476200960                       # Energy for read commands per rank (pJ) (Joule)
system.mem_ctrl.dram.rank0.writeEnergy      460289160                       # Energy for write commands per rank (pJ) (Joule)
system.mem_ctrl.dram.rank0.refreshEnergy 109978149840.000015                       # Energy for refresh commands per rank (pJ) (Joule)
system.mem_ctrl.dram.rank0.actBackEnergy 580443774270                       # Energy for active background per rank (pJ) (Joule)
system.mem_ctrl.dram.rank0.preBackEnergy  46195866720                       # Energy for precharge background per rank (pJ) (Joule)
system.mem_ctrl.dram.rank0.actPowerDownEnergy            0                       # Energy for active power-down per rank (pJ) (Joule)
system.mem_ctrl.dram.rank0.prePowerDownEnergy            0                       # Energy for precharge power-down per rank (pJ) (Joule)
system.mem_ctrl.dram.rank0.selfRefreshEnergy            0                       # Energy for self refresh per rank (pJ) (Joule)
system.mem_ctrl.dram.rank0.totalEnergy   802446337365                       # Total energy per rank (pJ) (Joule)
system.mem_ctrl.dram.rank0.averagePower    575.971577                       # Core power per rank (mW) (Watt)
system.mem_ctrl.dram.rank0.totalIdleTime            0                       # Total Idle time Per DRAM Rank (Tick)
system.mem_ctrl.dram.rank0.pwrStateTime::IDLE 113305912000                       # Time in different power states (Tick)
system.mem_ctrl.dram.rank0.pwrStateTime::REF  46522060000                       # Time in different power states (Tick)
system.mem_ctrl.dram.rank0.pwrStateTime::SREF            0                       # Time in different power states (Tick)
system.mem_ctrl.dram.rank0.pwrStateTime::PRE_PDN            0                       # Time in different power states (Tick)
system.mem_ctrl.dram.rank0.pwrStateTime::ACT 1233376778000                       # Time in different power states (Tick)
system.mem_ctrl.dram.rank0.pwrStateTime::ACT_PDN            0                       # Time in different power states (Tick)
system.mem_ctrl.dram.rank1.actEnergy       4755504180                       # Energy for activate commands per rank (pJ) (Joule)
system.mem_ctrl.dram.rank1.preEnergy       2527599030                       # Energy for precharge commands per rank (pJ) (Joule)
system.mem_ctrl.dram.rank1.readEnergy     41756069460                       # Energy for read commands per rank (pJ) (Joule)
system.mem_ctrl.dram.rank1.writeEnergy       67113540                       # Energy for write commands per rank (pJ) (Joule)
system.mem_ctrl.dram.rank1.refreshEnergy 109978149840.000015                       # Energy for refresh commands per rank (pJ) (Joule)
system.mem_ctrl.dram.rank1.actBackEnergy 532839182880                       # Energy for active background per rank (pJ) (Joule)
system.mem_ctrl.dram.rank1.preBackEnergy  86283943680                       # Energy for precharge background per rank (pJ) (Joule)
system.mem_ctrl.dram.rank1.actPowerDownEnergy            0                       # Energy for active power-down per rank (pJ) (Joule)
system.mem_ctrl.dram.rank1.prePowerDownEnergy            0                       # Energy for precharge power-down per rank (pJ) (Joule)
system.mem_ctrl.dram.rank1.selfRefreshEnergy            0                       # Energy for self refresh per rank (pJ) (Joule)
system.mem_ctrl.dram.rank1.totalEnergy   778207562610                       # Total energy per rank (pJ) (Joule)
system.mem_ctrl.dram.rank1.averagePower    558.573722                       # Core power per rank (mW) (Watt)
system.mem_ctrl.dram.rank1.totalIdleTime            0                       # Total Idle time Per DRAM Rank (Tick)
system.mem_ctrl.dram.rank1.pwrStateTime::IDLE 218500813750                       # Time in different power states (Tick)
system.mem_ctrl.dram.rank1.pwrStateTime::REF  46522060000                       # Time in different power states (Tick)
system.mem_ctrl.dram.rank1.pwrStateTime::SREF            0                       # Time in different power states (Tick)
system.mem_ctrl.dram.rank1.pwrStateTime::PRE_PDN            0                       # Time in different power states (Tick)
system.mem_ctrl.dram.rank1.pwrStateTime::ACT 1128181876250                       # Time in different power states (Tick)
system.mem_ctrl.dram.rank1.pwrStateTime::ACT_PDN            0                       # Time in different power states (Tick)
system.mem_ctrl.power_state.pwrStateResidencyTicks::UNDEFINED 1393204750000                       # Cumulative time (in ticks) in various power states (Tick)
system.membus.transDist::ReadReq             13587378                       # Transaction distribution (Count)
system.membus.transDist::ReadResp            13587377                       # Transaction distribution (Count)
system.membus.transDist::WriteReq             1559495                       # Transaction distribution (Count)
system.membus.transDist::WriteResp            1559495                       # Transaction distribution (Count)
system.membus.transDist::LockedRMWReadReq        36875                       # Transaction distribution (Count)
system.membus.transDist::LockedRMWReadResp        36875                       # Transaction distribution (Count)
system.membus.transDist::LockedRMWWriteReq        36875                       # Transaction distribution (Count)
system.membus.transDist::LockedRMWWriteResp        36875                       # Transaction distribution (Count)
system.membus.pktCount_system.cpu.icache_port::system.mem_ctrl.port     22336489                       # Packet count per connected requestor and responder (Count)
system.membus.pktCount_system.cpu.icache_port::total     22336489                       # Packet count per connected requestor and responder (Count)
system.membus.pktCount_system.cpu.dcache_port::system.mem_ctrl.port      8104756                       # Packet count per connected requestor and responder (Count)
system.membus.pktCount_system.cpu.dcache_port::total      8104756                       # Packet count per connected requestor and responder (Count)
system.membus.pktCount::total                30441245                       # Packet count per connected requestor and responder (Count)
system.membus.pktSize_system.cpu.icache_port::system.mem_ctrl.port     89345952                       # Cumulative packet size per connected requestor and responder (Byte)
system.membus.pktSize_system.cpu.icache_port::total     89345952                       # Cumulative packet size per connected requestor and responder (Byte)
system.membus.pktSize_system.cpu.dcache_port::system.mem_ctrl.port     27649386                       # Cumulative packet size per connected requestor and responder (Byte)
system.membus.pktSize_system.cpu.dcache_port::total     27649386                       # Cumulative packet size per connected requestor and responder (Byte)
system.membus.pktSize::total                116995338                       # Cumulative packet size per connected requestor and responder (Byte)
system.membus.snoops                                0                       # Total snoops (Count)
system.membus.snoopTraffic                          0                       # Total snoop traffic (Byte)
system.membus.snoopFanout::samples           15220623                       # Request fanout histogram (Count)
system.membus.snoopFanout::mean                     0                       # Request fanout histogram (Count)
system.membus.snoopFanout::stdev                    0                       # Request fanout histogram (Count)
system.membus.snoopFanout::underflows               0      0.00%      0.00% # Request fanout histogram (Count)
system.membus.snoopFanout::0                 15220623    100.00%    100.00% # Request fanout histogram (Count)
system.membus.snoopFanout::1                        0      0.00%    100.00% # Request fanout histogram (Count)
system.membus.snoopFanout::overflows                0      0.00%    100.00% # Request fanout histogram (Count)
system.membus.snoopFanout::min_value                0                       # Request fanout histogram (Count)
system.membus.snoopFanout::max_value                0                       # Request fanout histogram (Count)
system.membus.snoopFanout::total             15220623                       # Request fanout histogram (Count)
system.membus.power_state.pwrStateResidencyTicks::UNDEFINED 1393204750000                       # Cumulative time (in ticks) in various power states (Tick)
system.membus.reqLayer2.occupancy         84084965000                       # Layer occupancy (ticks) (Tick)
system.membus.reqLayer2.utilization               0.1                       # Layer utilization (Ratio)
system.membus.respLayer1.occupancy       127050883750                       # Layer occupancy (ticks) (Tick)
system.membus.respLayer1.utilization              0.1                       # Layer utilization (Ratio)
system.membus.respLayer2.occupancy        36416865000                       # Layer occupancy (ticks) (Tick)
system.membus.respLayer2.utilization              0.0                       # Layer utilization (Ratio)
system.membus.snoop_filter.totRequests              0                       # Total number of requests made to the snoop filter. (Count)
system.membus.snoop_filter.hitSingleRequests            0                       # Number of requests hitting in the snoop filter with a single holder of the requested data. (Count)
system.membus.snoop_filter.hitMultiRequests            0                       # Number of requests hitting in the snoop filter with multiple (>1) holders of the requested data. (Count)
system.membus.snoop_filter.totSnoops                0                       # Total number of snoops made to the snoop filter. (Count)
system.membus.snoop_filter.hitSingleSnoops            0                       # Number of snoops hitting in the snoop filter with a single holder of the requested data. (Count)
system.membus.snoop_filter.hitMultiSnoops            0                       # Number of snoops hitting in the snoop filter with multiple (>1) holders of the requested data. (Count)
system.workload.inst.arm                            0                       # number of arm instructions executed (Count)
system.workload.inst.quiesce                        0                       # number of quiesce instructions executed (Count)

---------- End Simulation Statistics   ----------

---------- Begin Simulation Statistics ----------
simSeconds                                   0.002365                       # Number of seconds simulated (Second)
simTicks                                   2365090000                       # Number of ticks simulated (Tick)
finalTick                                1395569840000                       # Number of ticks from beginning of simulation (restored from checkpoints and never reset) (Tick)
simFreq                                  1000000000000                       # The number of ticks per simulated second ((Tick/Second))
hostSeconds                                      0.07                       # Real time elapsed on the host (Second)
hostTickRate                              34309982157                       # The number of ticks simulated per host second (ticks/s) ((Tick/Second))
hostMemory                                    8632476                       # Number of bytes of host memory used (Byte)
simInsts                                      8318848                       # Number of instructions simulated (Count)
simOps                                       14842405                       # Number of ops (including micro ops) simulated (Count)
hostInstRate                                120536811                       # Simulator instruction rate (inst/s) ((Count/Second))
hostOpRate                                  215035640                       # Simulator op (including micro ops) rate (op/s) ((Count/Second))
system.clk_domain.clock                          5000                       # Clock period in ticks (Tick)
system.clk_domain.voltage_domain.voltage            1                       # Voltage in Volts (Volt)
system.cpu.numCycles                           473018                       # Number of cpu cycles simulated (Cycle)
system.cpu.cpi                              34.816576                       # CPI: cycles per instruction (core level) ((Cycle/Count))
system.cpu.ipc                               0.028722                       # IPC: instructions per cycle (core level) ((Count/Cycle))
system.cpu.numWorkItemsStarted                      0                       # Number of work items this cpu started (Count)
system.cpu.numWorkItemsCompleted                    0                       # Number of work items this cpu completed (Count)
system.cpu.commitStats0.numInsts                13586                       # Number of instructions committed (thread level) (Count)
system.cpu.commitStats0.numOps                  24553                       # Number of ops (including micro ops) committed (thread level) (Count)
system.cpu.commitStats0.numInstsNotNOP              0                       # Number of instructions committed excluding NOPs or prefetches (Count)
system.cpu.commitStats0.numOpsNotNOP                0                       # Number of Ops (including micro ops) Simulated (Count)
system.cpu.commitStats0.cpi                 34.816576                       # CPI: cycles per instruction (thread level) ((Cycle/Count))
system.cpu.commitStats0.ipc                  0.028722                       # IPC: instructions per cycle (thread level) ((Count/Cycle))
system.cpu.commitStats0.numMemRefs                  0                       # Number of memory references committed (Count)
system.cpu.commitStats0.numFpInsts                240                       # Number of float instructions (Count)
system.cpu.commitStats0.numIntInsts             23796                       # Number of integer instructions (Count)
system.cpu.commitStats0.numLoadInsts             4435                       # Number of load instructions (Count)
system.cpu.commitStats0.numStoreInsts            3154                       # Number of store instructions (Count)
system.cpu.commitStats0.numVecInsts                 0                       # Number of vector instructions (Count)
system.cpu.commitStats0.committedInstType::No_OpClass          372      1.52%      1.52% # Class of committed instruction. (Count)
system.cpu.commitStats0.committedInstType::IntAlu        16253     66.20%     67.71% # Class of committed instruction. (Count)
system.cpu.commitStats0.committedInstType::IntMult           92      0.37%     68.09% # Class of committed instruction. (Count)
system.cpu.commitStats0.committedInstType::IntDiv           49      0.20%     68.28% # Class of committed instruction. (Count)
system.cpu.commitStats0.committedInstType::FloatAdd           22      0.09%     68.37% # Class of committed instruction. (Count)
system.cpu.commitStats0.committedInstType::FloatCmp            0      0.00%     68.37% # Class of committed instruction. (Count)
system.cpu.commitStats0.committedInstType::FloatCvt            0      0.00%     68.37% # Class of committed instruction. (Count)
system.cpu.commitStats0.committedInstType::FloatMult            0      0.00%     68.37% # Class of committed instruction. (Count)
system.cpu.commitStats0.committedInstType::FloatMultAcc            0      0.00%     68.37% # Class of committed instruction. (Count)
system.cpu.commitStats0.committedInstType::FloatDiv            0      0.00%     68.37% # Class of committed instruction. (Count)
system.cpu.commitStats0.committedInstType::FloatMisc            0      0.00%     68.37% # Class of committed instruction. (Count)
system.cpu.commitStats0.committedInstType::FloatSqrt            0      0.00%     68.37% # Class of committed instruction. (Count)
system.cpu.commitStats0.committedInstType::SimdAdd            0      0.00%     68.37% # Class of committed instruction. (Count)
system.cpu.commitStats0.committedInstType::SimdAddAcc            0      0.00%     68.37% # Class of committed instruction. (Count)
system.cpu.commitStats0.committedInstType::SimdAlu           50      0.20%     68.58% # Class of committed instruction. (Count)
system.cpu.commitStats0.committedInstType::SimdCmp            0      0.00%     68.58% # Class of committed instruction. (Count)
system.cpu.commitStats0.committedInstType::SimdCvt            2      0.01%     68.59% # Class of committed instruction. (Count)
system.cpu.commitStats0.committedInstType::SimdMisc           94      0.38%     68.97% # Class of committed instruction. (Count)
system.cpu.commitStats0.committedInstType::SimdMult            0      0.00%     68.97% # Class of committed instruction. (Count)
system.cpu.commitStats0.committedInstType::SimdMultAcc            0      0.00%     68.97% # Class of committed instruction. (Count)
system.cpu.commitStats0.committedInstType::SimdMatMultAcc            0      0.00%     68.97% # Class of committed instruction. (Count)
system.cpu.commitStats0.committedInstType::SimdShift            0      0.00%     68.97% # Class of committed instruction. (Count)
system.cpu.commitStats0.committedInstType::SimdShiftAcc            0      0.00%     68.97% # Class of committed instruction. (Count)
system.cpu.commitStats0.committedInstType::SimdDiv            0      0.00%     68.97% # Class of committed instruction. (Count)
system.cpu.commitStats0.committedInstType::SimdSqrt            0      0.00%     68.97% # Class of committed instruction. (Count)
system.cpu.commitStats0.committedInstType::SimdFloatAdd            3      0.01%     68.98% # Class of committed instruction. (Count)
system.cpu.commitStats0.committedInstType::SimdFloatAlu            0      0.00%     68.98% # Class of committed instruction. (Count)
system.cpu.commitStats0.committedInstType::SimdFloatCmp            0      0.00%     68.98% # Class of committed instruction. (Count)
system.cpu.commitStats0.committedInstType::SimdFloatCvt           24      0.10%     69.08% # Class of committed instruction. (Count)
system.cpu.commitStats0.committedInstType::SimdFloatDiv            0      0.00%     69.08% # Class of committed instruction. (Count)
system.cpu.commitStats0.committedInstType::SimdFloatMisc            0      0.00%     69.08% # Class of committed instruction. (Count)
system.cpu.commitStats0.committedInstType::SimdFloatMult            0      0.00%     69.08% # Class of committed instruction. (Count)
system.cpu.commitStats0.committedInstType::SimdFloatMultAcc            0      0.00%     69.08% # Class of committed instruction. (Count)
system.cpu.commitStats0.committedInstType::SimdFloatMatMultAcc            0      0.00%     69.08% # Class of committed instruction. (Count)
system.cpu.commitStats0.committedInstType::SimdFloatSqrt            3      0.01%     69.09% # Class of committed instruction. (Count)
system.cpu.commitStats0.committedInstType::SimdReduceAdd            0      0.00%     69.09% # Class of committed instruction. (Count)
system.cpu.commitStats0.committedInstType::SimdReduceAlu            0      0.00%     69.09% # Class of committed instruction. (Count)
system.cpu.commitStats0.committedInstType::SimdReduceCmp            0      0.00%     69.09% # Class of committed instruction. (Count)
system.cpu.commitStats0.committedInstType::SimdFloatReduceAdd            0      0.00%     69.09% # Class of committed instruction. (Count)
system.cpu.commitStats0.committedInstType::SimdFloatReduceCmp            0      0.00%     69.09% # Class of committed instruction. (Count)
system.cpu.commitStats0.committedInstType::SimdAes            0      0.00%     69.09% # Class of committed instruction. (Count)
system.cpu.commitStats0.committedInstType::SimdAesMix            0      0.00%     69.09% # Class of committed instruction. (Count)
system.cpu.commitStats0.committedInstType::SimdSha1Hash            0      0.00%     69.09% # Class of committed instruction. (Count)
system.cpu.commitStats0.committedInstType::SimdSha1Hash2            0      0.00%     69.09% # Class of committed instruction. (Count)
system.cpu.commitStats0.committedInstType::SimdSha256Hash            0      0.00%     69.09% # Class of committed instruction. (Count)
system.cpu.commitStats0.committedInstType::SimdSha256Hash2            0      0.00%     69.09% # Class of committed instruction. (Count)
system.cpu.commitStats0.committedInstType::SimdShaSigma2            0      0.00%     69.09% # Class of committed instruction. (Count)
system.cpu.commitStats0.committedInstType::SimdShaSigma3            0      0.00%     69.09% # Class of committed instruction. (Count)
system.cpu.commitStats0.committedInstType::SimdPredAlu            0      0.00%     69.09% # Class of committed instruction. (Count)
system.cpu.commitStats0.committedInstType::Matrix            0      0.00%     69.09% # Class of committed instruction. (Count)
system.cpu.commitStats0.committedInstType::MatrixMov            0      0.00%     69.09% # Class of committed instruction. (Count)
system.cpu.commitStats0.committedInstType::MatrixOP            0      0.00%     69.09% # Class of committed instruction. (Count)
system.cpu.commitStats0.committedInstType::MemRead         4421     18.01%     87.10% # Class of committed instruction. (Count)
system.cpu.commitStats0.committedInstType::MemWrite         3154     12.85%     99.94% # Class of committed instruction. (Count)
system.cpu.commitStats0.committedInstType::FloatMemRead           14      0.06%    100.00% # Class of committed instruction. (Count)
system.cpu.commitStats0.committedInstType::FloatMemWrite            0      0.00%    100.00% # Class of committed instruction. (Count)
system.cpu.commitStats0.committedInstType::IprAccess            0      0.00%    100.00% # Class of committed instruction. (Count)
system.cpu.commitStats0.committedInstType::InstPrefetch            0      0.00%    100.00% # Class of committed instruction. (Count)
system.cpu.commitStats0.committedInstType::SimdUnitStrideLoad            0      0.00%    100.00% # Class of committed instruction. (Count)
system.cpu.commitStats0.committedInstType::SimdUnitStrideStore            0      0.00%    100.00% # Class of committed instruction. (Count)
system.cpu.commitStats0.committedInstType::SimdUnitStrideMaskLoad            0      0.00%    100.00% # Class of committed instruction. (Count)
system.cpu.commitStats0.committedInstType::SimdUnitStrideMaskStore            0      0.00%    100.00% # Class of committed instruction. (Count)
system.cpu.commitStats0.committedInstType::SimdStridedLoad            0      0.00%    100.00% # Class of committed instruction. (Count)
system.cpu.commitStats0.committedInstType::SimdStridedStore            0      0.00%    100.00% # Class of committed instruction. (Count)
system.cpu.commitStats0.committedInstType::SimdIndexedLoad            0      0.00%    100.00% # Class of committed instruction. (Count)
system.cpu.commitStats0.committedInstType::SimdIndexedStore            0      0.00%    100.00% # Class of committed instruction. (Count)
system.cpu.commitStats0.committedInstType::SimdWholeRegisterLoad            0      0.00%    100.00% # Class of committed instruction. (Count)
system.cpu.commitStats0.committedInstType::SimdWholeRegisterStore            0      0.00%    100.00% # Class of committed instruction. (Count)
system.cpu.commitStats0.committedInstType::SimdUnitStrideFaultOnlyFirstLoad            0      0.00%    100.00% # Class of committed instruction. (Count)
[...]
system.mem_ctrl.dram.bwRead::cpu.data        12474809                       # Total read bandwidth from this memory ((Byte/Second))
system.mem_ctrl.dram.bwRead::total           76803984                       # Total read bandwidth from this memory ((Byte/Second))
system.mem_ctrl.dram.bwInstRead::cpu.inst     64329175                       # Instruction read bandwidth from this memory ((Byte/Second))
system.mem_ctrl.dram.bwInstRead::total       64329175                       # Instruction read bandwidth from this memory ((Byte/Second))
system.mem_ctrl.dram.bwWrite::cpu.data        6681172                       # Write bandwidth from this memory ((Byte/Second))
system.mem_ctrl.dram.bwWrite::total           6681172                       # Write bandwidth from this memory ((Byte/Second))
system.mem_ctrl.dram.bwTotal::cpu.inst       64329175                       # Total bandwidth to/from this memory ((Byte/Second))
system.mem_ctrl.dram.bwTotal::cpu.data       19155980                       # Total bandwidth to/from this memory ((Byte/Second))
system.mem_ctrl.dram.bwTotal::total          83485156                       # Total bandwidth to/from this memory ((Byte/Second))
system.mem_ctrl.dram.readBursts                 65577                       # Number of DRAM read bursts (Count)
system.mem_ctrl.dram.writeBursts                  569                       # Number of DRAM write bursts (Count)
system.mem_ctrl.dram.perBankRdBursts::0          5646                       # Per bank write bursts (Count)
system.mem_ctrl.dram.perBankRdBursts::1          1690                       # Per bank write bursts (Count)
system.mem_ctrl.dram.perBankRdBursts::2           417                       # Per bank write bursts (Count)
system.mem_ctrl.dram.perBankRdBursts::3           435                       # Per bank write bursts (Count)
system.mem_ctrl.dram.perBankRdBursts::4          9403                       # Per bank write bursts (Count)
system.mem_ctrl.dram.perBankRdBursts::5          1770                       # Per bank write bursts (Count)
system.mem_ctrl.dram.perBankRdBursts::6          4728                       # Per bank write bursts (Count)
system.mem_ctrl.dram.perBankRdBursts::7          4058                       # Per bank write bursts (Count)
system.mem_ctrl.dram.perBankRdBursts::8         20822                       # Per bank write bursts (Count)
system.mem_ctrl.dram.perBankRdBursts::9          1782                       # Per bank write bursts (Count)
system.mem_ctrl.dram.perBankRdBursts::10         4073                       # Per bank write bursts (Count)
system.mem_ctrl.dram.perBankRdBursts::11         3906                       # Per bank write bursts (Count)
system.mem_ctrl.dram.perBankRdBursts::12         2333                       # Per bank write bursts (Count)
system.mem_ctrl.dram.perBankRdBursts::13         2854                       # Per bank write bursts (Count)
system.mem_ctrl.dram.perBankRdBursts::14         1028                       # Per bank write bursts (Count)
system.mem_ctrl.dram.perBankRdBursts::15          632                       # Per bank write bursts (Count)
system.mem_ctrl.dram.perBankWrBursts::0           291                       # Per bank write bursts (Count)
system.mem_ctrl.dram.perBankWrBursts::1            62                       # Per bank write bursts (Count)
system.mem_ctrl.dram.perBankWrBursts::2             0                       # Per bank write bursts (Count)
system.mem_ctrl.dram.perBankWrBursts::3             0                       # Per bank write bursts (Count)
system.mem_ctrl.dram.perBankWrBursts::4            40                       # Per bank write bursts (Count)
system.mem_ctrl.dram.perBankWrBursts::5            39                       # Per bank write bursts (Count)
system.mem_ctrl.dram.perBankWrBursts::6             5                       # Per bank write bursts (Count)
system.mem_ctrl.dram.perBankWrBursts::7             3                       # Per bank write bursts (Count)
system.mem_ctrl.dram.perBankWrBursts::8            11                       # Per bank write bursts (Count)
system.mem_ctrl.dram.perBankWrBursts::9            25                       # Per bank write bursts (Count)
system.mem_ctrl.dram.perBankWrBursts::10            7                       # Per bank write bursts (Count)
system.mem_ctrl.dram.perBankWrBursts::11           26                       # Per bank write bursts (Count)
system.mem_ctrl.dram.perBankWrBursts::12            6                       # Per bank write bursts (Count)
system.mem_ctrl.dram.perBankWrBursts::13           18                       # Per bank write bursts (Count)
system.mem_ctrl.dram.perBankWrBursts::14           12                       # Per bank write bursts (Count)
system.mem_ctrl.dram.perBankWrBursts::15           24                       # Per bank write bursts (Count)
system.mem_ctrl.dram.totQLat                338315750                       # Total ticks spent queuing (Tick)
system.mem_ctrl.dram.totBusLat              327885000                       # Total ticks spent in databus transfers (Tick)
system.mem_ctrl.dram.totMemAccLat          1567884500                       # Total ticks spent from burst creation until serviced by the DRAM (Tick)
system.mem_ctrl.dram.avgQLat                  5159.06                       # Average queueing delay per DRAM burst ((Tick/Count))
system.mem_ctrl.dram.avgBusLat                5000.00                       # Average bus latency per DRAM burst ((Tick/Count))
system.mem_ctrl.dram.avgMemAccLat            23909.06                       # Average memory access latency per DRAM burst ((Tick/Count))
system.mem_ctrl.dram.readRowHits                56777                       # Number of row buffer hits during reads (Count)
system.mem_ctrl.dram.writeRowHits                 457                       # Number of row buffer hits during writes (Count)
system.mem_ctrl.dram.readRowHitRate             86.58                       # Row buffer hit rate for reads (Ratio)
system.mem_ctrl.dram.writeRowHitRate            80.32                       # Row buffer hit rate for writes (Ratio)
system.mem_ctrl.dram.bytesPerActivate::samples         8908                       # Bytes accessed per row activation (Byte)
system.mem_ctrl.dram.bytesPerActivate::mean   474.942075                       # Bytes accessed per row activation (Byte)
system.mem_ctrl.dram.bytesPerActivate::gmean   282.646829                       # Bytes accessed per row activation (Byte)
system.mem_ctrl.dram.bytesPerActivate::stdev   402.039853                       # Bytes accessed per row activation (Byte)
system.mem_ctrl.dram.bytesPerActivate::0-127         2325     26.10%     26.10% # Bytes accessed per row activation (Byte)
system.mem_ctrl.dram.bytesPerActivate::128-255         1662     18.66%     44.76% # Bytes accessed per row activation (Byte)
system.mem_ctrl.dram.bytesPerActivate::256-383          670      7.52%     52.28% # Bytes accessed per row activation (Byte)
system.mem_ctrl.dram.bytesPerActivate::384-511          513      5.76%     58.04% # Bytes accessed per row activation (Byte)
system.mem_ctrl.dram.bytesPerActivate::512-639          458      5.14%     63.18% # Bytes accessed per row activation (Byte)
system.mem_ctrl.dram.bytesPerActivate::640-767          294      3.30%     66.48% # Bytes accessed per row activation (Byte)
system.mem_ctrl.dram.bytesPerActivate::768-895          237      2.66%     69.14% # Bytes accessed per row activation (Byte)
system.mem_ctrl.dram.bytesPerActivate::896-1023          217      2.44%     71.58% # Bytes accessed per row activation (Byte)
system.mem_ctrl.dram.bytesPerActivate::1024-1151         2532     28.42%    100.00% # Bytes accessed per row activation (Byte)
system.mem_ctrl.dram.bytesPerActivate::total         8908                       # Bytes accessed per row activation (Byte)
system.mem_ctrl.dram.dramBytesRead            4196928                       # Total bytes read (Byte)
system.mem_ctrl.dram.dramBytesWritten           36416                       # Total bytes written (Byte)
system.mem_ctrl.dram.avgRdBW               623.521747                       # Average DRAM read bandwidth in MiBytes/s ((Byte/Second))
system.mem_ctrl.dram.avgWrBW                 5.410188                       # Average DRAM write bandwidth in MiBytes/s ((Byte/Second))
system.mem_ctrl.dram.peakBW                  12800.00                       # Theoretical peak bandwidth in MiByte/s ((Byte/Second))
system.mem_ctrl.dram.busUtil                     4.91                       # Data bus utilization in percentage (Ratio)
system.mem_ctrl.dram.busUtilRead                 4.87                       # Data bus utilization in percentage for reads (Ratio)
system.mem_ctrl.dram.busUtilWrite                0.04                       # Data bus utilization in percentage for writes (Ratio)
system.mem_ctrl.dram.pageHitRate                86.53                       # Row buffer hit rate, read and write combined (Ratio)
system.mem_ctrl.dram.power_state.pwrStateResidencyTicks::UNDEFINED   6731005000                       # Cumulative time (in ticks) in various power states (Tick)
system.mem_ctrl.dram.rank0.actEnergy         32644080                       # Energy for activate commands per rank (pJ) (Joule)
system.mem_ctrl.dram.rank0.preEnergy         17343150                       # Energy for precharge commands per rank (pJ) (Joule)
system.mem_ctrl.dram.rank0.readEnergy       200969580                       # Energy for read commands per rank (pJ) (Joule)
system.mem_ctrl.dram.rank0.writeEnergy        2296800                       # Energy for write commands per rank (pJ) (Joule)
system.mem_ctrl.dram.rank0.refreshEnergy 531048960.000000                       # Energy for refresh commands per rank (pJ) (Joule)
system.mem_ctrl.dram.rank0.actBackEnergy   2702767290                       # Energy for active background per rank (pJ) (Joule)
system.mem_ctrl.dram.rank0.preBackEnergy    308691360                       # Energy for precharge background per rank (pJ) (Joule)
system.mem_ctrl.dram.rank0.actPowerDownEnergy            0                       # Energy for active power-down per rank (pJ) (Joule)
system.mem_ctrl.dram.rank0.prePowerDownEnergy            0                       # Energy for precharge power-down per rank (pJ) (Joule)
system.mem_ctrl.dram.rank0.selfRefreshEnergy            0                       # Energy for self refresh per rank (pJ) (Joule)
system.mem_ctrl.dram.rank0.totalEnergy     3795761220                       # Total energy per rank (pJ) (Joule)
system.mem_ctrl.dram.rank0.averagePower    563.921914                       # Core power per rank (mW) (Watt)
system.mem_ctrl.dram.rank0.totalIdleTime            0                       # Total Idle time Per DRAM Rank (Tick)
system.mem_ctrl.dram.rank0.pwrStateTime::IDLE    773358750                       # Time in different power states (Tick)
system.mem_ctrl.dram.rank0.pwrStateTime::REF    224640000                       # Time in different power states (Tick)
system.mem_ctrl.dram.rank0.pwrStateTime::SREF            0                       # Time in different power states (Tick)
system.mem_ctrl.dram.rank0.pwrStateTime::PRE_PDN            0                       # Time in different power states (Tick)
system.mem_ctrl.dram.rank0.pwrStateTime::ACT   5733006250                       # Time in different power states (Tick)
system.mem_ctrl.dram.rank0.pwrStateTime::ACT_PDN            0                       # Time in different power states (Tick)
system.mem_ctrl.dram.rank1.actEnergy         30987600                       # Energy for activate commands per rank (pJ) (Joule)
system.mem_ctrl.dram.rank1.preEnergy         16462710                       # Energy for precharge commands per rank (pJ) (Joule)
system.mem_ctrl.dram.rank1.readEnergy       267250200                       # Energy for read commands per rank (pJ) (Joule)
system.mem_ctrl.dram.rank1.writeEnergy         673380                       # Energy for write commands per rank (pJ) (Joule)
system.mem_ctrl.dram.rank1.refreshEnergy 531048960.000000                       # Energy for refresh commands per rank (pJ) (Joule)
system.mem_ctrl.dram.rank1.actBackEnergy   2592460890                       # Energy for active background per rank (pJ) (Joule)
system.mem_ctrl.dram.rank1.preBackEnergy    401580960                       # Energy for precharge background per rank (pJ) (Joule)
system.mem_ctrl.dram.rank1.actPowerDownEnergy            0                       # Energy for active power-down per rank (pJ) (Joule)
system.mem_ctrl.dram.rank1.prePowerDownEnergy            0                       # Energy for precharge power-down per rank (pJ) (Joule)
system.mem_ctrl.dram.rank1.selfRefreshEnergy            0                       # Energy for self refresh per rank (pJ) (Joule)
system.mem_ctrl.dram.rank1.totalEnergy     3840464700                       # Total energy per rank (pJ) (Joule)
system.mem_ctrl.dram.rank1.averagePower    570.563341                       # Core power per rank (mW) (Watt)
system.mem_ctrl.dram.rank1.totalIdleTime            0                       # Total Idle time Per DRAM Rank (Tick)
system.mem_ctrl.dram.rank1.pwrStateTime::IDLE   1016345000                       # Time in different power states (Tick)
system.mem_ctrl.dram.rank1.pwrStateTime::REF    224640000                       # Time in different power states (Tick)
system.mem_ctrl.dram.rank1.pwrStateTime::SREF            0                       # Time in different power states (Tick)
system.mem_ctrl.dram.rank1.pwrStateTime::PRE_PDN            0                       # Time in different power states (Tick)
system.mem_ctrl.dram.rank1.pwrStateTime::ACT   5490020000                       # Time in different power states (Tick)
system.mem_ctrl.dram.rank1.pwrStateTime::ACT_PDN            0                       # Time in different power states (Tick)
system.mem_ctrl.power_state.pwrStateResidencyTicks::UNDEFINED   6731005000                       # Cumulative time (in ticks) in various power states (Tick)
system.membus.transDist::ReadReq                66553                       # Transaction distribution (Count)
system.membus.transDist::ReadResp               66554                       # Transaction distribution (Count)
system.membus.transDist::WriteReq                6061                       # Transaction distribution (Count)
system.membus.transDist::WriteResp               6061                       # Transaction distribution (Count)
system.membus.transDist::LockedRMWReadReq          206                       # Transaction distribution (Count)
system.membus.transDist::LockedRMWReadResp          206                       # Transaction distribution (Count)
system.membus.transDist::LockedRMWWriteReq          206                       # Transaction distribution (Count)
system.membus.transDist::LockedRMWWriteResp          206                       # Transaction distribution (Count)
system.membus.pktCount_system.cpu.icache_port::system.mem_ctrl.port       108249                       # Packet count per connected requestor and responder (Count)
system.membus.pktCount_system.cpu.icache_port::total       108249                       # Packet count per connected requestor and responder (Count)
system.membus.pktCount_system.cpu.dcache_port::system.mem_ctrl.port        37804                       # Packet count per connected requestor and responder (Count)
system.membus.pktCount_system.cpu.dcache_port::total        37804                       # Packet count per connected requestor and responder (Count)
system.membus.pktCount::total                  146053                       # Packet count per connected requestor and responder (Count)
system.membus.pktSize_system.cpu.icache_port::system.mem_ctrl.port       433000                       # Cumulative packet size per connected requestor and responder (Byte)
system.membus.pktSize_system.cpu.icache_port::total       433000                       # Cumulative packet size per connected requestor and responder (Byte)
system.membus.pktSize_system.cpu.dcache_port::system.mem_ctrl.port       128939                       # Cumulative packet size per connected requestor and responder (Byte)
system.membus.pktSize_system.cpu.dcache_port::total       128939                       # Cumulative packet size per connected requestor and responder (Byte)
system.membus.pktSize::total                   561939                       # Cumulative packet size per connected requestor and responder (Byte)
system.membus.snoops                                0                       # Total snoops (Count)
system.membus.snoopTraffic                          0                       # Total snoop traffic (Byte)
system.membus.snoopFanout::samples              73026                       # Request fanout histogram (Count)
system.membus.snoopFanout::mean                     0                       # Request fanout histogram (Count)
system.membus.snoopFanout::stdev                    0                       # Request fanout histogram (Count)
system.membus.snoopFanout::underflows               0      0.00%      0.00% # Request fanout histogram (Count)
system.membus.snoopFanout::0                    73026    100.00%    100.00% # Request fanout histogram (Count)
system.membus.snoopFanout::1                        0      0.00%    100.00% # Request fanout histogram (Count)
system.membus.snoopFanout::overflows                0      0.00%    100.00% # Request fanout histogram (Count)
system.membus.snoopFanout::min_value                0                       # Request fanout histogram (Count)
system.membus.snoopFanout::max_value                0                       # Request fanout histogram (Count)
system.membus.snoopFanout::total                73026                       # Request fanout histogram (Count)
system.membus.power_state.pwrStateResidencyTicks::UNDEFINED   6731005000                       # Cumulative time (in ticks) in various power states (Tick)
system.membus.reqLayer2.occupancy           396465000                       # Layer occupancy (ticks) (Tick)
system.membus.reqLayer2.utilization               0.1                       # Layer utilization (Ratio)
system.membus.respLayer1.occupancy          614904250                       # Layer occupancy (ticks) (Tick)
system.membus.respLayer1.utilization              0.1                       # Layer utilization (Ratio)
system.membus.respLayer2.occupancy          178787500                       # Layer occupancy (ticks) (Tick)
system.membus.respLayer2.utilization              0.0                       # Layer utilization (Ratio)
system.membus.snoop_filter.totRequests              0                       # Total number of requests made to the snoop filter. (Count)
system.membus.snoop_filter.hitSingleRequests            0                       # Number of requests hitting in the snoop filter with a single holder of the requested data. (Count)
system.membus.snoop_filter.hitMultiRequests            0                       # Number of requests hitting in the snoop filter with multiple (>1) holders of the requested data. (Count)
system.membus.snoop_filter.totSnoops                0                       # Total number of snoops made to the snoop filter. (Count)
system.membus.snoop_filter.hitSingleSnoops            0                       # Number of snoops hitting in the snoop filter with a single holder of the requested data. (Count)
system.membus.snoop_filter.hitMultiSnoops            0                       # Number of snoops hitting in the snoop filter with multiple (>1) holders of the requested data. (Count)
system.workload.inst.arm                            0                       # number of arm instructions executed (Count)
system.workload.inst.quiesce                        0                       # number of quiesce instructions executed (Count)

---------- End Simulation Statistics   ----------
