
---------- Begin Simulation Statistics ----------
simSeconds                                   1.433277                       # Number of seconds simulated (Second)
simTicks                                 1433276535000                       # Number of ticks simulated (Tick)
finalTick                                1433276535000                       # Number of ticks from beginning of simulation (restored from checkpoints and never reset) (Tick)
simFreq                                  1000000000000                       # The number of ticks per simulated second ((Tick/Second))
hostSeconds                                     36.82                       # Real time elapsed on the host (Second)
hostTickRate                              38922387955                       # The number of ticks simulated per host second (ticks/s) ((Tick/Second))
hostMemory                                    8673476                       # Number of bytes of host memory used (Byte)
simInsts                                      9099811                       # Number of instructions simulated (Count)
simOps                                       15135241                       # Number of ops (including micro ops) simulated (Count)
hostInstRate                                   247116                       # Simulator instruction rate (inst/s) ((Count/Second))
hostOpRate                                     411015                       # Simulator op (including micro ops) rate (op/s) ((Count/Second))
system.clk_domain.clock                          5000                       # Clock period in ticks (Tick)
system.clk_domain.voltage_domain.voltage            1                       # Voltage in Volts (Volt)
system.cpu.numCycles                        286655307                       # Number of cpu cycles simulated (Cycle)
system.cpu.cpi                              31.498371                       # CPI: cycles per instruction (core level) ((Cycle/Count))
system.cpu.ipc                               0.031748                       # IPC: instructions per cycle (core level) ((Count/Cycle))
system.cpu.numWorkItemsStarted                      0                       # Number of work items this cpu started (Count)
system.cpu.numWorkItemsCompleted                    0                       # Number of work items this cpu completed (Count)
system.cpu.commitStats0.numInsts              9100639                       # Number of instructions committed (thread level) (Count)
system.cpu.commitStats0.numOps               15136250                       # Number of ops (including micro ops) committed (thread level) (Count)
system.cpu.commitStats0.numInstsNotNOP              0                       # Number of instructions committed excluding NOPs or prefetches (Count)
system.cpu.commitStats0.numOpsNotNOP                0                       # Number of Ops (including micro ops) Simulated (Count)
system.cpu.commitStats0.cpi                 31.498371                       # CPI: cycles per instruction (thread level) ((Cycle/Count))
system.cpu.commitStats0.ipc                  0.031748                       # IPC: instructions per cycle (thread level) ((Count/Cycle))
system.cpu.commitStats0.numMemRefs                  0                       # Number of memory references committed (Count)
system.cpu.commitStats0.numFpInsts            2525327                       # Number of float instructions (Count)
system.cpu.commitStats0.numIntInsts          13501059                       # Number of integer instructions (Count)
system.cpu.commitStats0.numLoadInsts          2194239                       # Number of load instructions (Count)
system.cpu.commitStats0.numStoreInsts         1005404                       # Number of store instructions (Count)
system.cpu.commitStats0.numVecInsts                 0                       # Number of vector instructions (Count)
system.cpu.commitStats0.committedInstType::No_OpClass        50544      0.33%      0.33% # Class of committed instruction. (Count)
system.cpu.commitStats0.committedInstType::IntAlu     10444949     69.01%     69.34% # Class of committed instruction. (Count)
system.cpu.commitStats0.committedInstType::IntMult         6117      0.04%     69.38% # Class of committed instruction. (Count)
system.cpu.commitStats0.committedInstType::IntDiv        56340      0.37%     69.75% # Class of committed instruction. (Count)
system.cpu.commitStats0.committedInstType::FloatAdd       496162      3.28%     73.03% # Class of committed instruction. (Count)
system.cpu.commitStats0.committedInstType::FloatCmp            0      0.00%     73.03% # Class of committed instruction. (Count)
system.cpu.commitStats0.committedInstType::FloatCvt         1664      0.01%     73.04% # Class of committed instruction. (Count)
system.cpu.commitStats0.committedInstType::FloatMult            0      0.00%     73.04% # Class of committed instruction. (Count)
system.cpu.commitStats0.committedInstType::FloatMultAcc            0      0.00%     73.04% # Class of committed instruction. (Count)
system.cpu.commitStats0.committedInstType::FloatDiv            0      0.00%     73.04% # Class of committed instruction. (Count)
system.cpu.commitStats0.committedInstType::FloatMisc            0      0.00%     73.04% # Class of committed instruction. (Count)
system.cpu.commitStats0.committedInstType::FloatSqrt            0      0.00%     73.04% # Class of committed instruction. (Count)
system.cpu.commitStats0.committedInstType::SimdAdd         6820      0.05%     73.09% # Class of committed instruction. (Count)
system.cpu.commitStats0.committedInstType::SimdAddAcc            0      0.00%     73.09% # Class of committed instruction. (Count)
system.cpu.commitStats0.committedInstType::SimdAlu        87524      0.58%     73.67% # Class of committed instruction. (Count)
system.cpu.commitStats0.committedInstType::SimdCmp           12      0.00%     73.67% # Class of committed instruction. (Count)
system.cpu.commitStats0.committedInstType::SimdCvt        16244      0.11%     73.77% # Class of committed instruction. (Count)
system.cpu.commitStats0.committedInstType::SimdMisc        35823      0.24%     74.01% # Class of committed instruction. (Count)
system.cpu.commitStats0.committedInstType::SimdMult            0      0.00%     74.01% # Class of committed instruction. (Count)
system.cpu.commitStats0.committedInstType::SimdMultAcc            0      0.00%     74.01% # Class of committed instruction. (Count)
system.cpu.commitStats0.committedInstType::SimdMatMultAcc            0      0.00%     74.01% # Class of committed instruction. (Count)
system.cpu.commitStats0.committedInstType::SimdShift         2238      0.01%     74.02% # Class of committed instruction. (Count)
system.cpu.commitStats0.committedInstType::SimdShiftAcc            0      0.00%     74.02% # Class of committed instruction. (Count)
system.cpu.commitStats0.committedInstType::SimdDiv            0      0.00%     74.02% # Class of committed instruction. (Count)
system.cpu.commitStats0.committedInstType::SimdSqrt            0      0.00%     74.02% # Class of committed instruction. (Count)
system.cpu.commitStats0.committedInstType::SimdFloatAdd       303560      2.01%     76.03% # Class of committed instruction. (Count)
system.cpu.commitStats0.committedInstType::SimdFloatAlu            0      0.00%     76.03% # Class of committed instruction. (Count)
system.cpu.commitStats0.committedInstType::SimdFloatCmp        46134      0.30%     76.33% # Class of committed instruction. (Count)
system.cpu.commitStats0.committedInstType::SimdFloatCvt       195826      1.29%     77.63% # Class of committed instruction. (Count)
system.cpu.commitStats0.committedInstType::SimdFloatDiv         6008      0.04%     77.67% # Class of committed instruction. (Count)
system.cpu.commitStats0.committedInstType::SimdFloatMisc            0      0.00%     77.67% # Class of committed instruction. (Count)
system.cpu.commitStats0.committedInstType::SimdFloatMult       178398      1.18%     78.85% # Class of committed instruction. (Count)
system.cpu.commitStats0.committedInstType::SimdFloatMultAcc            0      0.00%     78.85% # Class of committed instruction. (Count)
system.cpu.commitStats0.committedInstType::SimdFloatMatMultAcc            0      0.00%     78.85% # Class of committed instruction. (Count)
system.cpu.commitStats0.committedInstType::SimdFloatSqrt         2244      0.01%     78.86% # Class of committed instruction. (Count)
system.cpu.commitStats0.committedInstType::SimdReduceAdd            0      0.00%     78.86% # Class of committed instruction. (Count)
system.cpu.commitStats0.committedInstType::SimdReduceAlu            0      0.00%     78.86% # Class of committed instruction. (Count)
system.cpu.commitStats0.committedInstType::SimdReduceCmp            0      0.00%     78.86% # Class of committed instruction. (Count)
system.cpu.commitStats0.committedInstType::SimdFloatReduceAdd            0      0.00%     78.86% # Class of committed instruction. (Count)
system.cpu.commitStats0.committedInstType::SimdFloatReduceCmp            0      0.00%     78.86% # Class of committed instruction. (Count)
system.cpu.commitStats0.committedInstType::SimdAes            0      0.00%     78.86% # Class of committed instruction. (Count)
system.cpu.commitStats0.committedInstType::SimdAesMix            0      0.00%     78.86% # Class of committed instruction. (Count)
system.cpu.commitStats0.committedInstType::SimdSha1Hash            0      0.00%     78.86% # Class of committed instruction. (Count)
system.cpu.commitStats0.committedInstType::SimdSha1Hash2            0      0.00%     78.86% # Class of committed instruction. (Count)
system.cpu.commitStats0.committedInstType::SimdSha256Hash            0      0.00%     78.86% # Class of committed instruction. (Count)
system.cpu.commitStats0.committedInstType::SimdSha256Hash2            0      0.00%     78.86% # Class of committed instruction. (Count)
system.cpu.commitStats0.committedInstType::SimdShaSigma2            0      0.00%     78.86% # Class of committed instruction. (Count)
system.cpu.commitStats0.committedInstType::SimdShaSigma3            0      0.00%     78.86% # Class of committed instruction. (Count)
system.cpu.commitStats0.committedInstType::SimdPredAlu            0      0.00%     78.86% # Class of committed instruction. (Count)
system.cpu.commitStats0.committedInstType::Matrix            0      0.00%     78.86% # Class of committed instruction. (Count)
system.cpu.commitStats0.committedInstType::MatrixMov            0      0.00%     78.86% # Class of committed instruction. (Count)
system.cpu.commitStats0.committedInstType::MatrixOP            0      0.00%     78.86% # Class of committed instruction. (Count)
system.cpu.commitStats0.committedInstType::MemRead      1508020      9.96%     88.82% # Class of committed instruction. (Count)
system.cpu.commitStats0.committedInstType::MemWrite       745052      4.92%     93.75% # Class of committed instruction. (Count)
system.cpu.commitStats0.committedInstType::FloatMemRead       686219      4.53%     98.28% # Class of committed instruction. (Count)
system.cpu.commitStats0.committedInstType::FloatMemWrite       260352      1.72%    100.00% # Class of committed instruction. (Count)
system.cpu.commitStats0.committedInstType::IprAccess            0      0.00%    100.00% # Class of committed instruction. (Count)
system.cpu.commitStats0.committedInstType::InstPrefetch            0      0.00%    100.00% # Class of committed instruction. (Count)
system.cpu.commitStats0.committedInstType::SimdUnitStrideLoad            0      0.00%    100.00% # Class of committed instruction. (Count)
system.cpu.commitStats0.committedInstType::SimdUnitStrideStore            0      0.00%    100.00% # Class of committed instruction. (Count)
system.cpu.commitStats0.committedInstType::SimdUnitStrideMaskLoad            0      0.00%    100.00% # Class of committed instruction. (Count)
system.cpu.commitStats0.committedInstType::SimdUnitStrideMaskStore            0      0.00%    100.00% # Class of committed instruction. (Count)
system.cpu.commitStats0.committedInstType::SimdStridedLoad            0      0.00%    100.00% # Class of committed instruction. (Count)
system.cpu.commitStats0.committedInstType::SimdStridedStore            0      0.00%    100.00% # Class of committed instruction. (Count)
system.cpu.commitStats0.committedInstType::SimdIndexedLoad            0      0.00%    100.00% # Class of committed instruction. (Count)
system.cpu.commitStats0.committedInstType::SimdIndexedStore            0      0.00%    100.00% # Class of committed instruction. (Count)
system.cpu.commitStats0.committedInstType::SimdWholeRegisterLoad            0      0.00%    100.00% # Class of committed instruction. (Count)
system.cpu.commitStats0.committedInstType::SimdWholeRegisterStore            0      0.00%    100.00% # Class of committed instruction. (Count)
system.cpu.commitStats0.committedInstType::SimdUnitStrideFaultOnlyFirstLoad            0      0.00%    100.00% # Class of committed instruction. (Count)
system.cpu.commitStats0.committedInstType::SimdUnitStrideSegmentedLoad            0      0.00%    100.00% # Class of committed instruction. (Count)
system.cpu.commitStats0.committedInstType::SimdUnitStrideSegmentedStore            0      0.00%    100.00% # Class of committed instruction. (Count)
system.cpu.commitStats0.committedInstType::SimdExt            0      0.00%    100.00% # Class of committed instruction. (Count)
system.cpu.commitStats0.committedInstType::SimdFloatExt            0      0.00%    100.00% # Class of committed instruction. (Count)
system.cpu.commitStats0.committedInstType::SimdConfig            0      0.00%    100.00% # Class of committed instruction. (Count)
system.cpu.commitStats0.committedInstType::total     15136250                       # Class of committed instruction. (Count)
system.cpu.commitStats0.committedControl::IsControl      1402730                       # Class of control type instructions committed (Count)
system.cpu.commitStats0.committedControl::IsDirectControl      1354653                       # Class of control type instructions committed (Count)
system.cpu.commitStats0.committedControl::IsIndirectControl        47723                       # Class of control type instructions committed (Count)
system.cpu.commitStats0.committedControl::IsCondControl      1175478                       # Class of control type instructions committed (Count)
system.cpu.commitStats0.committedControl::IsUncondControl       226898                       # Class of control type instructions committed (Count)
system.cpu.commitStats0.committedControl::IsCall        36889                       # Class of control type instructions committed (Count)
system.cpu.commitStats0.committedControl::IsReturn        36884                       # Class of control type instructions committed (Count)
system.cpu.exec_context.thread_0.numMatAluAccesses            0                       # Number of matrix alu accesses (Count)
system.cpu.exec_context.thread_0.numCallsReturns        73773                       # Number of times a function call or return occured (Count)
system.cpu.exec_context.thread_0.numMatInsts            0                       # Number of matrix instructions (Count)
system.cpu.exec_context.thread_0.numIdleCycles            0                       # Number of idle cycles (Cycle)
system.cpu.exec_context.thread_0.numBusyCycles    286655307                       # Number of busy cycles (Cycle)
system.cpu.exec_context.thread_0.notIdleFraction            1                       # Percentage of non-idle cycles (Ratio)
system.cpu.exec_context.thread_0.idleFraction            0                       # Percentage of idle cycles (Ratio)
system.cpu.executeStats0.numInsts                   0                       # Number of executed instructions (Count)
system.cpu.executeStats0.numNop                     0                       # Number of nop insts executed (Count)
system.cpu.executeStats0.numBranches                0                       # Number of branches executed (Count)
system.cpu.executeStats0.numLoadInsts               0                       # Number of load instructions executed (Count)
system.cpu.executeStats0.numStoreInsts        3199643                       # Number of stores executed (Count)
system.cpu.executeStats0.instRate                   0                       # Inst execution rate ((Count/Cycle))
system.cpu.executeStats0.numFpAluAccesses      2525327                       # Number of float alu accesses (Count)
system.cpu.executeStats0.numFpRegReads        2952953                       # Number of times the floating registers were read (Count)
system.cpu.executeStats0.numFpRegWrites       2070831                       # Number of times the floating registers were written (Count)
system.cpu.executeStats0.numIntAluAccesses     13501059                       # Number of integer alu accesses (Count)
system.cpu.executeStats0.numIntRegReads      16745107                       # Number of times the integer registers were read (Count)
system.cpu.executeStats0.numIntRegWrites      9510765                       # Number of times the integer registers were written (Count)
system.cpu.executeStats0.numMemRefs           3199643                       # Number of memory refs (Count)
system.cpu.executeStats0.numMiscRegReads      6005884                       # Number of times the Misc registers were read (Count)
system.cpu.executeStats0.numMiscRegWrites          936                       # Number of times the Misc registers were written (Count)
system.cpu.executeStats0.numVecAluAccesses            0                       # Number of vector alu accesses (Count)
system.cpu.executeStats0.numDiscardedOps            0                       # Number of ops (including micro ops) which were discarded before commit (Count)
system.cpu.fetchStats0.numInsts               9100639                       # Number of instructions fetched (thread level) (Count)
system.cpu.fetchStats0.numOps                15136250                       # Number of ops (including micro ops) fetched (thread level) (Count)
system.cpu.fetchStats0.fetchRate             0.031748                       # Number of inst fetches per cycle ((Count/Cycle))
system.cpu.fetchStats0.numBranches            1402730                       # Number of branches fetched (Count)
system.cpu.fetchStats0.branchRate            0.004893                       # Number of branch fetches per cycle (Ratio)
system.cpu.fetchStats0.numFetchSuspends             0                       # Number of times Execute suspended instruction fetching (Count)
system.cpu.interrupts.clk_domain.clock          80000                       # Clock period in ticks (Tick)
system.cpu.mmu.dtb.rdAccesses                 2194537                       # TLB accesses on read requests (Count)
system.cpu.mmu.dtb.wrAccesses                 1005482                       # TLB accesses on write requests (Count)
system.cpu.mmu.dtb.rdMisses                      2068                       # TLB misses on read requests (Count)
system.cpu.mmu.dtb.wrMisses                       935                       # TLB misses on write requests (Count)
system.cpu.mmu.dtb.walker.power_state.pwrStateResidencyTicks::UNDEFINED 1433276535000                       # Cumulative time (in ticks) in various power states (Tick)
system.cpu.mmu.itb.rdAccesses                       0                       # TLB accesses on read requests (Count)
system.cpu.mmu.itb.wrAccesses                12274630                       # TLB accesses on write requests (Count)
system.cpu.mmu.itb.rdMisses                         0                       # TLB misses on read requests (Count)
system.cpu.mmu.itb.wrMisses                       603                       # TLB misses on write requests (Count)
system.cpu.mmu.itb.walker.power_state.pwrStateResidencyTicks::UNDEFINED 1433276535000                       # Cumulative time (in ticks) in various power states (Tick)
system.cpu.power_state.pwrStateResidencyTicks::ON 1433276535000                       # Cumulative time (in ticks) in various power states (Tick)
system.cpu.thread_0.numInsts                        0                       # Number of Instructions committed (Count)
system.cpu.thread_0.numOps                          0                       # Number of Ops committed (Count)
system.cpu.thread_0.numMemRefs                      0                       # Number of Memory References (Count)
system.cpu.workload.numSyscalls                   320                       # Number of system calls (Count)
system.mem_ctrl.avgPriority_cpu.inst::samples  12274487.00                       # Average QoS priority value for accepted requests (Count)
system.mem_ctrl.avgPriority_cpu.data::samples   2037545.00                       # Average QoS priority value for accepted requests (Count)
system.mem_ctrl.priorityMinLatency       0.000000018750                       # per QoS priority minimum request to response latency (Second)
system.mem_ctrl.priorityMaxLatency       0.045930068750                       # per QoS priority maximum request to response latency (Second)
system.mem_ctrl.numReadWriteTurnArounds          1999                       # Number of turnarounds from READ to WRITE (Count)
system.mem_ctrl.numWriteReadTurnArounds          1999                       # Number of turnarounds from WRITE to READ (Count)
system.mem_ctrl.numStayReadState             29926507                       # Number of times bus staying in READ state (Count)
system.mem_ctrl.numStayWriteState               32653                       # Number of times bus staying in WRITE state (Count)
system.mem_ctrl.readReqs                     14468771                       # Number of read requests accepted (Count)
system.mem_ctrl.writeReqs                     1005045                       # Number of write requests accepted (Count)
system.mem_ctrl.readBursts                   14468771                       # Number of controller read bursts, including those serviced by the write queue (Count)
system.mem_ctrl.writeBursts                   1005045                       # Number of controller write bursts, including those merged in the write queue (Count)
system.mem_ctrl.servicedByWrQ                  191366                       # Number of controller read bursts serviced by the write queue (Count)
system.mem_ctrl.mergedWrBursts                 970418                       # Number of controller write bursts merged with an existing one (Count)
system.mem_ctrl.neitherReadNorWriteReqs             0                       # Number of requests that are neither read nor write (Count)
system.mem_ctrl.avgRdQLen                        1.00                       # Average read queue length when enqueuing ((Count/Tick))
system.mem_ctrl.avgWrQLen                       26.47                       # Average write queue length when enqueuing ((Count/Tick))
system.mem_ctrl.numRdRetry                          0                       # Number of times read queue was full causing retry (Count)
system.mem_ctrl.numWrRetry                          0                       # Number of times write queue was full causing retry (Count)
system.mem_ctrl.readPktSize::0                 185368                       # Read request sizes (log2) (Count)
system.mem_ctrl.readPktSize::1                  16451                       # Read request sizes (log2) (Count)
system.mem_ctrl.readPktSize::2                 314594                       # Read request sizes (log2) (Count)
system.mem_ctrl.readPktSize::3               13952358                       # Read request sizes (log2) (Count)
system.mem_ctrl.readPktSize::4                      0                       # Read request sizes (log2) (Count)
system.mem_ctrl.readPktSize::5                      0                       # Read request sizes (log2) (Count)
system.mem_ctrl.readPktSize::6                      0                       # Read request sizes (log2) (Count)
system.mem_ctrl.writePktSize::0                 15467                       # Write request sizes (log2) (Count)
system.mem_ctrl.writePktSize::1                  3400                       # Write request sizes (log2) (Count)
system.mem_ctrl.writePktSize::2                 41820                       # Write request sizes (log2) (Count)
system.mem_ctrl.writePktSize::3                944358                       # Write request sizes (log2) (Count)
system.mem_ctrl.writePktSize::4                     0                       # Write request sizes (log2) (Count)
system.mem_ctrl.writePktSize::5                     0                       # Write request sizes (log2) (Count)
system.mem_ctrl.writePktSize::6                     0                       # Write request sizes (log2) (Count)
system.mem_ctrl.rdQLenPdf::0                 14277108                       # What read queue length does an incoming req see (Count)
system.mem_ctrl.rdQLenPdf::1                      297                       # What read queue length does an incoming req see (Count)
system.mem_ctrl.rdQLenPdf::2                        0                       # What read queue length does an incoming req see (Count)
system.mem_ctrl.rdQLenPdf::3                        0                       # What read queue length does an incoming req see (Count)
system.mem_ctrl.rdQLenPdf::4                        0                       # What read queue length does an incoming req see (Count)
system.mem_ctrl.rdQLenPdf::5                        0                       # What read queue length does an incoming req see (Count)
system.mem_ctrl.rdQLenPdf::6                        0                       # What read queue length does an incoming req see (Count)
system.mem_ctrl.rdQLenPdf::7                        0                       # What read queue length does an incoming req see (Count)
system.mem_ctrl.rdQLenPdf::8                        0                       # What read queue length does an incoming req see (Count)
system.mem_ctrl.rdQLenPdf::9                        0                       # What read queue length does an incoming req see (Count)
system.mem_ctrl.rdQLenPdf::10                       0                       # What read queue length does an incoming req see (Count)
system.mem_ctrl.rdQLenPdf::11                       0                       # What read queue length does an incoming req see (Count)
system.mem_ctrl.rdQLenPdf::12                       0                       # What read queue length does an incoming req see (Count)
system.mem_ctrl.rdQLenPdf::13                       0                       # What read queue length does an incoming req see (Count)
system.mem_ctrl.rdQLenPdf::14                       0                       # What read queue length does an incoming req see (Count)
system.mem_ctrl.rdQLenPdf::15                       0                       # What read queue length does an incoming req see (Count)
system.mem_ctrl.rdQLenPdf::16                       0                       # What read queue length does an incoming req see (Count)
system.mem_ctrl.rdQLenPdf::17                       0                       # What read queue length does an incoming req see (Count)
system.mem_ctrl.rdQLenPdf::18                       0                       # What read queue length does an incoming req see (Count)
system.mem_ctrl.rdQLenPdf::19                       0                       # What read queue length does an incoming req see (Count)
system.mem_ctrl.rdQLenPdf::20                       0                       # What read queue length does an incoming req see (Count)
system.mem_ctrl.rdQLenPdf::21                       0                       # What read queue length does an incoming req see (Count)
system.mem_ctrl.rdQLenPdf::22                       0                       # What read queue length does an incoming req see (Count)
system.mem_ctrl.rdQLenPdf::23                       0                       # What read queue length does an incoming req see (Count)
system.mem_ctrl.rdQLenPdf::24                       0                       # What read queue length does an incoming req see (Count)
system.mem_ctrl.rdQLenPdf::25                       0                       # What read queue length does an incoming req see (Count)
system.mem_ctrl.rdQLenPdf::26                       0                       # What read queue length does an incoming req see (Count)
system.mem_ctrl.rdQLenPdf::27                       0                       # What read queue length does an incoming req see (Count)
system.mem_ctrl.rdQLenPdf::28                       0                       # What read queue length does an incoming req see (Count)
system.mem_ctrl.rdQLenPdf::29                       0                       # What read queue length does an incoming req see (Count)
system.mem_ctrl.rdQLenPdf::30                       0                       # What read queue length does an incoming req see (Count)
system.mem_ctrl.rdQLenPdf::31                       0                       # What read queue length does an incoming req see (Count)
system.mem_ctrl.wrQLenPdf::0                        1                       # What write queue length does an incoming req see (Count)
system.mem_ctrl.wrQLenPdf::1                        1                       # What write queue length does an incoming req see (Count)
system.mem_ctrl.wrQLenPdf::2                        1                       # What write queue length does an incoming req see (Count)
system.mem_ctrl.wrQLenPdf::3                        1                       # What write queue length does an incoming req see (Count)
system.mem_ctrl.wrQLenPdf::4                        1                       # What write queue length does an incoming req see (Count)
system.mem_ctrl.wrQLenPdf::5                        1                       # What write queue length does an incoming req see (Count)
system.mem_ctrl.wrQLenPdf::6                        1                       # What write queue length does an incoming req see (Count)
system.mem_ctrl.wrQLenPdf::7                        1                       # What write queue length does an incoming req see (Count)
system.mem_ctrl.wrQLenPdf::8                        1                       # What write queue length does an incoming req see (Count)
system.mem_ctrl.wrQLenPdf::9                        1                       # What write queue length does an incoming req see (Count)
system.mem_ctrl.wrQLenPdf::10                       1                       # What write queue length does an incoming req see (Count)
system.mem_ctrl.wrQLenPdf::11                       1                       # What write queue length does an incoming req see (Count)
system.mem_ctrl.wrQLenPdf::12                       1                       # What write queue length does an incoming req see (Count)
system.mem_ctrl.wrQLenPdf::13                       1                       # What write queue length does an incoming req see (Count)
system.mem_ctrl.wrQLenPdf::14                       1                       # What write queue length does an incoming req see (Count)
system.mem_ctrl.wrQLenPdf::15                     816                       # What write queue length does an incoming req see (Count)
system.mem_ctrl.wrQLenPdf::16                    1801                       # What write queue length does an incoming req see (Count)
system.mem_ctrl.wrQLenPdf::17                    2001                       # What write queue length does an incoming req see (Count)
system.mem_ctrl.wrQLenPdf::18                    2000                       # What write queue length does an incoming req see (Count)
system.mem_ctrl.wrQLenPdf::19                    2000                       # What write queue length does an incoming req see (Count)
system.mem_ctrl.wrQLenPdf::20                    2000                       # What write queue length does an incoming req see (Count)
system.mem_ctrl.wrQLenPdf::21                    2000                       # What write queue length does an incoming req see (Count)
system.mem_ctrl.wrQLenPdf::22                    2000                       # What write queue length does an incoming req see (Count)
system.mem_ctrl.wrQLenPdf::23                    2001                       # What write queue length does an incoming req see (Count)
system.mem_ctrl.wrQLenPdf::24                    2000                       # What write queue length does an incoming req see (Count)
system.mem_ctrl.wrQLenPdf::25                    2000                       # What write queue length does an incoming req see (Count)
system.mem_ctrl.wrQLenPdf::26                    1999                       # What write queue length does an incoming req see (Count)
system.mem_ctrl.wrQLenPdf::27                    1999                       # What write queue length does an incoming req see (Count)
system.mem_ctrl.wrQLenPdf::28                    1999                       # What write queue length does an incoming req see (Count)
system.mem_ctrl.wrQLenPdf::29                    1999                       # What write queue length does an incoming req see (Count)
system.mem_ctrl.wrQLenPdf::30                    1999                       # What write queue length does an incoming req see (Count)
system.mem_ctrl.wrQLenPdf::31                    1999                       # What write queue length does an incoming req see (Count)
system.mem_ctrl.wrQLenPdf::32                    1999                       # What write queue length does an incoming req see (Count)
system.mem_ctrl.wrQLenPdf::33                       0                       # What write queue length does an incoming req see (Count)
system.mem_ctrl.wrQLenPdf::34                       0                       # What write queue length does an incoming req see (Count)
system.mem_ctrl.wrQLenPdf::35                       0                       # What write queue length does an incoming req see (Count)
system.mem_ctrl.wrQLenPdf::36                       0                       # What write queue length does an incoming req see (Count)
system.mem_ctrl.wrQLenPdf::37                       0                       # What write queue length does an incoming req see (Count)
system.mem_ctrl.wrQLenPdf::38                       0                       # What write queue length does an incoming req see (Count)
system.mem_ctrl.wrQLenPdf::39                       0                       # What write queue length does an incoming req see (Count)
system.mem_ctrl.wrQLenPdf::40                       0                       # What write queue length does an incoming req see (Count)
system.mem_ctrl.wrQLenPdf::41                       0                       # What write queue length does an incoming req see (Count)
system.mem_ctrl.wrQLenPdf::42                       0                       # What write queue length does an incoming req see (Count)
system.mem_ctrl.wrQLenPdf::43                       0                       # What write queue length does an incoming req see (Count)
system.mem_ctrl.wrQLenPdf::44                       0                       # What write queue length does an incoming req see (Count)
system.mem_ctrl.wrQLenPdf::45                       0                       # What write queue length does an incoming req see (Count)
system.mem_ctrl.wrQLenPdf::46                       0                       # What write queue length does an incoming req see (Count)
system.mem_ctrl.wrQLenPdf::47                       0                       # What write queue length does an incoming req see (Count)
system.mem_ctrl.wrQLenPdf::48                       0                       # What write queue length does an incoming req see (Count)
system.mem_ctrl.wrQLenPdf::49                       0                       # What write queue length does an incoming req see (Count)
system.mem_ctrl.wrQLenPdf::50                       0                       # What write queue length does an incoming req see (Count)
system.mem_ctrl.wrQLenPdf::51                       0                       # What write queue length does an incoming req see (Count)
system.mem_ctrl.wrQLenPdf::52                       0                       # What write queue length does an incoming req see (Count)
system.mem_ctrl.wrQLenPdf::53                       0                       # What write queue length does an incoming req see (Count)
system.mem_ctrl.wrQLenPdf::54                       0                       # What write queue length does an incoming req see (Count)
system.mem_ctrl.wrQLenPdf::55                       0                       # What write queue length does an incoming req see (Count)
system.mem_ctrl.wrQLenPdf::56                       0                       # What write queue length does an incoming req see (Count)
system.mem_ctrl.wrQLenPdf::57                       0                       # What write queue length does an incoming req see (Count)
system.mem_ctrl.wrQLenPdf::58                       0                       # What write queue length does an incoming req see (Count)
system.mem_ctrl.wrQLenPdf::59                       0                       # What write queue length does an incoming req see (Count)
system.mem_ctrl.wrQLenPdf::60                       0                       # What write queue length does an incoming req see (Count)
system.mem_ctrl.wrQLenPdf::61                       0                       # What write queue length does an incoming req see (Count)
system.mem_ctrl.wrQLenPdf::62                       0                       # What write queue length does an incoming req see (Count)
system.mem_ctrl.wrQLenPdf::63                       0                       # What write queue length does an incoming req see (Count)
system.mem_ctrl.rdPerTurnAround::samples         1999                       # Reads before turning the bus around for writes (Count)
system.mem_ctrl.rdPerTurnAround::mean     7141.910455                       # Reads before turning the bus around for writes (Count)
system.mem_ctrl.rdPerTurnAround::stdev   10980.384563                       # Reads before turning the bus around for writes (Count)
system.mem_ctrl.rdPerTurnAround::0-4095          1331     66.58%     66.58% # Reads before turning the bus around for writes (Count)
system.mem_ctrl.rdPerTurnAround::4096-8191          147      7.35%     73.94% # Reads before turning the bus around for writes (Count)
system.mem_ctrl.rdPerTurnAround::8192-12287           97      4.85%     78.79% # Reads before turning the bus around for writes (Count)
system.mem_ctrl.rdPerTurnAround::12288-16383           78      3.90%     82.69% # Reads before turning the bus around for writes (Count)
system.mem_ctrl.rdPerTurnAround::16384-20479           87      4.35%     87.04% # Reads before turning the bus around for writes (Count)
system.mem_ctrl.rdPerTurnAround::20480-24575           76      3.80%     90.85% # Reads before turning the bus around for writes (Count)
system.mem_ctrl.rdPerTurnAround::24576-28671           51      2.55%     93.40% # Reads before turning the bus around for writes (Count)
system.mem_ctrl.rdPerTurnAround::28672-32767           10      0.50%     93.90% # Reads before turning the bus around for writes (Count)
system.mem_ctrl.rdPerTurnAround::32768-36863           52      2.60%     96.50% # Reads before turning the bus around for writes (Count)
system.mem_ctrl.rdPerTurnAround::36864-40959           30      1.50%     98.00% # Reads before turning the bus around for writes (Count)
system.mem_ctrl.rdPerTurnAround::40960-45055           31      1.55%     99.55% # Reads before turning the bus around for writes (Count)
system.mem_ctrl.rdPerTurnAround::45056-49151            3      0.15%     99.70% # Reads before turning the bus around for writes (Count)
system.mem_ctrl.rdPerTurnAround::53248-57343            3      0.15%     99.85% # Reads before turning the bus around for writes (Count)
system.mem_ctrl.rdPerTurnAround::65536-69631            2      0.10%     99.95% # Reads before turning the bus around for writes (Count)
system.mem_ctrl.rdPerTurnAround::69632-73727            1      0.05%    100.00% # Reads before turning the bus around for writes (Count)
system.mem_ctrl.rdPerTurnAround::total           1999                       # Reads before turning the bus around for writes (Count)
system.mem_ctrl.wrPerTurnAround::samples         1999                       # Writes before turning the bus around for reads (Count)
system.mem_ctrl.wrPerTurnAround::mean       17.309655                       # Writes before turning the bus around for reads (Count)
system.mem_ctrl.wrPerTurnAround::gmean      17.297461                       # Writes before turning the bus around for reads (Count)
system.mem_ctrl.wrPerTurnAround::stdev       0.646591                       # Writes before turning the bus around for reads (Count)
system.mem_ctrl.wrPerTurnAround::16               200     10.01%     10.01% # Writes before turning the bus around for reads (Count)
system.mem_ctrl.wrPerTurnAround::17               984     49.22%     59.23% # Writes before turning the bus around for reads (Count)
system.mem_ctrl.wrPerTurnAround::18               811     40.57%     99.80% # Writes before turning the bus around for reads (Count)
system.mem_ctrl.wrPerTurnAround::19                 4      0.20%    100.00% # Writes before turning the bus around for reads (Count)
system.mem_ctrl.wrPerTurnAround::total           1999                       # Writes before turning the bus around for reads (Count)
system.mem_ctrl.bytesReadWrQ                 12247424                       # Total number of bytes read from write queue (Byte)
system.mem_ctrl.bytesReadSys                113095198                       # Total read bytes from the system interface side (Byte)
system.mem_ctrl.bytesWrittenSys               7744335                       # Total written bytes from the system interface side (Byte)
system.mem_ctrl.avgRdBWSys               78906753.32935664                       # Average system read bandwidth in Byte/s ((Byte/Second))
system.mem_ctrl.avgWrBWSys               5403238.53135571                       # Average system write bandwidth in Byte/s ((Byte/Second))
system.mem_ctrl.totGap                   1433276415000                       # Total gap between requests (Tick)
system.mem_ctrl.avgGap                       92625.92                       # Average gap between requests ((Tick/Count))
system.mem_ctrl.requestorReadBytes::cpu.inst     98195896                       # Per-requestor bytes read from memory (Byte)
system.mem_ctrl.requestorReadBytes::cpu.data     13613305                       # Per-requestor bytes read from memory (Byte)
system.mem_ctrl.requestorWriteBytes::cpu.data       266822                       # Per-requestor bytes write to memory (Byte)
system.mem_ctrl.requestorReadRate::cpu.inst 68511479.538036242127                       # Per-requestor bytes read from memory rate ((Byte/Second))
system.mem_ctrl.requestorReadRate::cpu.data 9498031.027208575979                       # Per-requestor bytes read from memory rate ((Byte/Second))
system.mem_ctrl.requestorWriteRate::cpu.data 186162.260725213069                       # Per-requestor bytes write to memory rate ((Byte/Second))
system.mem_ctrl.requestorReadAccesses::cpu.inst     12274487                       # Per-requestor read serviced memory accesses (Count)
system.mem_ctrl.requestorReadAccesses::cpu.data      2194284                       # Per-requestor read serviced memory accesses (Count)
system.mem_ctrl.requestorWriteAccesses::cpu.data      1005045                       # Per-requestor write serviced memory accesses (Count)
system.mem_ctrl.requestorReadTotalLat::cpu.inst 279516161500                       # Per-requestor read total memory access latency (Tick)
system.mem_ctrl.requestorReadTotalLat::cpu.data  57285270000                       # Per-requestor read total memory access latency (Tick)
system.mem_ctrl.requestorWriteTotalLat::cpu.data 37466004610000                       # Per-requestor write total memory access latency (Tick)
system.mem_ctrl.requestorReadAvgLat::cpu.inst     22772.13                       # Per-requestor read average memory access latency ((Tick/Count))
system.mem_ctrl.requestorReadAvgLat::cpu.data     26106.59                       # Per-requestor read average memory access latency ((Tick/Count))
system.mem_ctrl.requestorWriteAvgLat::cpu.data  37277937.42                       # Per-requestor write average memory access latency ((Tick/Count))
system.mem_ctrl.dram.bytesRead::cpu.inst     98195888                       # Number of bytes read from this memory (Byte)
system.mem_ctrl.dram.bytesRead::cpu.data     14899302                       # Number of bytes read from this memory (Byte)
system.mem_ctrl.dram.bytesRead::total       113095190                       # Number of bytes read from this memory (Byte)
system.mem_ctrl.dram.bytesInstRead::cpu.inst     98195888                       # Number of instructions bytes read from this memory (Byte)
system.mem_ctrl.dram.bytesInstRead::total     98195888                       # Number of instructions bytes read from this memory (Byte)
system.mem_ctrl.dram.bytesWritten::cpu.data      7744335                       # Number of bytes written to this memory (Byte)
system.mem_ctrl.dram.bytesWritten::total      7744335                       # Number of bytes written to this memory (Byte)
system.mem_ctrl.dram.numReads::cpu.inst      12274486                       # Number of read requests responded to by this memory (Count)
system.mem_ctrl.dram.numReads::cpu.data       2194284                       # Number of read requests responded to by this memory (Count)
system.mem_ctrl.dram.numReads::total         14468770                       # Number of read requests responded to by this memory (Count)
system.mem_ctrl.dram.numWrites::cpu.data      1005045                       # Number of write requests responded to by this memory (Count)
system.mem_ctrl.dram.numWrites::total         1005045                       # Number of write requests responded to by this memory (Count)
system.mem_ctrl.dram.bwRead::cpu.inst        68511474                       # Total read bandwidth from this memory ((Byte/Second))
system.mem_ctrl.dram.bwRead::cpu.data        10395274                       # Total read bandwidth from this memory ((Byte/Second))
system.mem_ctrl.dram.bwRead::total           78906748                       # Total read bandwidth from this memory ((Byte/Second))
system.mem_ctrl.dram.bwInstRead::cpu.inst     68511474                       # Instruction read bandwidth from this memory ((Byte/Second))
system.mem_ctrl.dram.bwInstRead::total       68511474                       # Instruction read bandwidth from this memory ((Byte/Second))
system.mem_ctrl.dram.bwWrite::cpu.data        5403239                       # Write bandwidth from this memory ((Byte/Second))
system.mem_ctrl.dram.bwWrite::total           5403239                       # Write bandwidth from this memory ((Byte/Second))
system.mem_ctrl.dram.bwTotal::cpu.inst       68511474                       # Total bandwidth to/from this memory ((Byte/Second))
system.mem_ctrl.dram.bwTotal::cpu.data       15798512                       # Total bandwidth to/from this memory ((Byte/Second))
system.mem_ctrl.dram.bwTotal::total          84309986                       # Total bandwidth to/from this memory ((Byte/Second))
system.mem_ctrl.dram.readBursts              14277405                       # Number of DRAM read bursts (Count)
system.mem_ctrl.dram.writeBursts                34602                       # Number of DRAM write bursts (Count)
system.mem_ctrl.dram.perBankRdBursts::0         73135                       # Per bank write bursts (Count)
system.mem_ctrl.dram.perBankRdBursts::1        312516                       # Per bank write bursts (Count)
system.mem_ctrl.dram.perBankRdBursts::2        197028                       # Per bank write bursts (Count)
system.mem_ctrl.dram.perBankRdBursts::3       1379688                       # Per bank write bursts (Count)
system.mem_ctrl.dram.perBankRdBursts::4        157127                       # Per bank write bursts (Count)
system.mem_ctrl.dram.perBankRdBursts::5        283464                       # Per bank write bursts (Count)
system.mem_ctrl.dram.perBankRdBursts::6         33979                       # Per bank write bursts (Count)
system.mem_ctrl.dram.perBankRdBursts::7        339228                       # Per bank write bursts (Count)
system.mem_ctrl.dram.perBankRdBursts::8       5068309                       # Per bank write bursts (Count)
system.mem_ctrl.dram.perBankRdBursts::9        173528                       # Per bank write bursts (Count)
system.mem_ctrl.dram.perBankRdBursts::10       117643                       # Per bank write bursts (Count)
system.mem_ctrl.dram.perBankRdBursts::11      1123756                       # Per bank write bursts (Count)
system.mem_ctrl.dram.perBankRdBursts::12      1599849                       # Per bank write bursts (Count)
system.mem_ctrl.dram.perBankRdBursts::13       179537                       # Per bank write bursts (Count)
system.mem_ctrl.dram.perBankRdBursts::14      3172465                       # Per bank write bursts (Count)
system.mem_ctrl.dram.perBankRdBursts::15        66153                       # Per bank write bursts (Count)
system.mem_ctrl.dram.perBankWrBursts::0          1430                       # Per bank write bursts (Count)
system.mem_ctrl.dram.perBankWrBursts::1          2385                       # Per bank write bursts (Count)
system.mem_ctrl.dram.perBankWrBursts::2          2313                       # Per bank write bursts (Count)
system.mem_ctrl.dram.perBankWrBursts::3         14811                       # Per bank write bursts (Count)
system.mem_ctrl.dram.perBankWrBursts::4          1438                       # Per bank write bursts (Count)
system.mem_ctrl.dram.perBankWrBursts::5          4284                       # Per bank write bursts (Count)
system.mem_ctrl.dram.perBankWrBursts::6           490                       # Per bank write bursts (Count)
system.mem_ctrl.dram.perBankWrBursts::7           489                       # Per bank write bursts (Count)
system.mem_ctrl.dram.perBankWrBursts::8           769                       # Per bank write bursts (Count)
system.mem_ctrl.dram.perBankWrBursts::9           602                       # Per bank write bursts (Count)
system.mem_ctrl.dram.perBankWrBursts::10          668                       # Per bank write bursts (Count)
system.mem_ctrl.dram.perBankWrBursts::11          650                       # Per bank write bursts (Count)
system.mem_ctrl.dram.perBankWrBursts::12         1118                       # Per bank write bursts (Count)
system.mem_ctrl.dram.perBankWrBursts::13          861                       # Per bank write bursts (Count)
system.mem_ctrl.dram.perBankWrBursts::14         1338                       # Per bank write bursts (Count)
system.mem_ctrl.dram.perBankWrBursts::15          956                       # Per bank write bursts (Count)
system.mem_ctrl.dram.totQLat              69100087750                       # Total ticks spent queuing (Tick)
system.mem_ctrl.dram.totBusLat            71387025000                       # Total ticks spent in databus transfers (Tick)
system.mem_ctrl.dram.totMemAccLat        336801431500                       # Total ticks spent from burst creation until serviced by the DRAM (Tick)
system.mem_ctrl.dram.avgQLat                  4839.82                       # Average queueing delay per DRAM burst ((Tick/Count))
system.mem_ctrl.dram.avgBusLat                5000.00                       # Average bus latency per DRAM burst ((Tick/Count))
system.mem_ctrl.dram.avgMemAccLat            23589.82                       # Average memory access latency per DRAM burst ((Tick/Count))
system.mem_ctrl.dram.readRowHits             12628213                       # Number of row buffer hits during reads (Count)
system.mem_ctrl.dram.writeRowHits               29579                       # Number of row buffer hits during writes (Count)
system.mem_ctrl.dram.readRowHitRate             88.45                       # Row buffer hit rate for reads (Ratio)
system.mem_ctrl.dram.writeRowHitRate            85.48                       # Row buffer hit rate for writes (Ratio)
system.mem_ctrl.dram.bytesPerActivate::samples      1654206                       # Bytes accessed per row activation (Byte)
system.mem_ctrl.dram.bytesPerActivate::mean   553.720211                       # Bytes accessed per row activation (Byte)
system.mem_ctrl.dram.bytesPerActivate::gmean   333.947494                       # Bytes accessed per row activation (Byte)
system.mem_ctrl.dram.bytesPerActivate::stdev   423.837242                       # Bytes accessed per row activation (Byte)
system.mem_ctrl.dram.bytesPerActivate::0-127       396357     23.96%     23.96% # Bytes accessed per row activation (Byte)
system.mem_ctrl.dram.bytesPerActivate::128-255       256321     15.50%     39.46% # Bytes accessed per row activation (Byte)
system.mem_ctrl.dram.bytesPerActivate::256-383       107716      6.51%     45.97% # Bytes accessed per row activation (Byte)
system.mem_ctrl.dram.bytesPerActivate::384-511        72278      4.37%     50.34% # Bytes accessed per row activation (Byte)
system.mem_ctrl.dram.bytesPerActivate::512-639        40915      2.47%     52.81% # Bytes accessed per row activation (Byte)
system.mem_ctrl.dram.bytesPerActivate::640-767        40923      2.47%     55.28% # Bytes accessed per row activation (Byte)
system.mem_ctrl.dram.bytesPerActivate::768-895        46029      2.78%     58.07% # Bytes accessed per row activation (Byte)
system.mem_ctrl.dram.bytesPerActivate::896-1023        64768      3.92%     61.98% # Bytes accessed per row activation (Byte)
system.mem_ctrl.dram.bytesPerActivate::1024-1151       628899     38.02%    100.00% # Bytes accessed per row activation (Byte)
system.mem_ctrl.dram.bytesPerActivate::total      1654206                       # Bytes accessed per row activation (Byte)
system.mem_ctrl.dram.dramBytesRead          913753920                       # Total bytes read (Byte)
system.mem_ctrl.dram.dramBytesWritten         2214528                       # Total bytes written (Byte)
system.mem_ctrl.dram.avgRdBW               637.527998                       # Average DRAM read bandwidth in MiBytes/s ((Byte/Second))
system.mem_ctrl.dram.avgWrBW                 1.545081                       # Average DRAM write bandwidth in MiBytes/s ((Byte/Second))
system.mem_ctrl.dram.peakBW                  12800.00                       # Theoretical peak bandwidth in MiByte/s ((Byte/Second))
system.mem_ctrl.dram.busUtil                     4.99                       # Data bus utilization in percentage (Ratio)
system.mem_ctrl.dram.busUtilRead                 4.98                       # Data bus utilization in percentage for reads (Ratio)
system.mem_ctrl.dram.busUtilWrite                0.01                       # Data bus utilization in percentage for writes (Ratio)
system.mem_ctrl.dram.pageHitRate                88.44                       # Row buffer hit rate, read and write combined (Ratio)
system.mem_ctrl.dram.power_state.pwrStateResidencyTicks::UNDEFINED 1433276535000                       # Cumulative time (in ticks) in various power states (Tick)
system.mem_ctrl.dram.rank0.actEnergy       5717340720                       # Energy for activate commands per rank (pJ) (Joule)
system.mem_ctrl.dram.rank0.preEnergy       3038815890                       # Energy for precharge commands per rank (pJ) (Joule)
system.mem_ctrl.dram.rank0.readEnergy     19821818100                       # Energy for read commands per rank (pJ) (Joule)
system.mem_ctrl.dram.rank0.writeEnergy      144280800                       # Energy for write commands per rank (pJ) (Joule)
system.mem_ctrl.dram.rank0.refreshEnergy 113141087280.000015                       # Energy for refresh commands per rank (pJ) (Joule)
system.mem_ctrl.dram.rank0.actBackEnergy 577269768600                       # Energy for active background per rank (pJ) (Joule)
system.mem_ctrl.dram.rank0.preBackEnergy  64256279040                       # Energy for precharge background per rank (pJ) (Joule)
system.mem_ctrl.dram.rank0.actPowerDownEnergy            0                       # Energy for active power-down per rank (pJ) (Joule)
system.mem_ctrl.dram.rank0.prePowerDownEnergy            0                       # Energy for precharge power-down per rank (pJ) (Joule)
system.mem_ctrl.dram.rank0.selfRefreshEnergy            0                       # Energy for self refresh per rank (pJ) (Joule)
system.mem_ctrl.dram.rank0.totalEnergy   783389390430                       # Total energy per rank (pJ) (Joule)
system.mem_ctrl.dram.rank0.averagePower    546.572396                       # Core power per rank (mW) (Watt)
system.mem_ctrl.dram.rank0.totalIdleTime            0                       # Total Idle time Per DRAM Rank (Tick)
system.mem_ctrl.dram.rank0.pwrStateTime::IDLE 161541286250                       # Time in different power states (Tick)
system.mem_ctrl.dram.rank0.pwrStateTime::REF  47860020000                       # Time in different power states (Tick)
system.mem_ctrl.dram.rank0.pwrStateTime::SREF            0                       # Time in different power states (Tick)
system.mem_ctrl.dram.rank0.pwrStateTime::PRE_PDN            0                       # Time in different power states (Tick)
system.mem_ctrl.dram.rank0.pwrStateTime::ACT 1223875228750                       # Time in different power states (Tick)
system.mem_ctrl.dram.rank0.pwrStateTime::ACT_PDN            0                       # Time in different power states (Tick)
system.mem_ctrl.dram.rank1.actEnergy       6093754380                       # Energy for activate commands per rank (pJ) (Joule)
system.mem_ctrl.dram.rank1.preEnergy       3238895880                       # Energy for precharge commands per rank (pJ) (Joule)
system.mem_ctrl.dram.rank1.readEnergy     82118853600                       # Energy for read commands per rank (pJ) (Joule)
system.mem_ctrl.dram.rank1.writeEnergy       36341640                       # Energy for write commands per rank (pJ) (Joule)
system.mem_ctrl.dram.rank1.refreshEnergy 113141087280.000015                       # Energy for refresh commands per rank (pJ) (Joule)
system.mem_ctrl.dram.rank1.actBackEnergy 584704153200                       # Energy for active background per rank (pJ) (Joule)
system.mem_ctrl.dram.rank1.preBackEnergy  57995744640                       # Energy for precharge background per rank (pJ) (Joule)
system.mem_ctrl.dram.rank1.actPowerDownEnergy            0                       # Energy for active power-down per rank (pJ) (Joule)
system.mem_ctrl.dram.rank1.prePowerDownEnergy            0                       # Energy for precharge power-down per rank (pJ) (Joule)
system.mem_ctrl.dram.rank1.selfRefreshEnergy            0                       # Energy for self refresh per rank (pJ) (Joule)
system.mem_ctrl.dram.rank1.totalEnergy   847328830620                       # Total energy per rank (pJ) (Joule)
system.mem_ctrl.dram.rank1.averagePower    591.183076                       # Core power per rank (mW) (Watt)
system.mem_ctrl.dram.rank1.totalIdleTime            0                       # Total Idle time Per DRAM Rank (Tick)
system.mem_ctrl.dram.rank1.pwrStateTime::IDLE 139895933750                       # Time in different power states (Tick)
system.mem_ctrl.dram.rank1.pwrStateTime::REF  47860020000                       # Time in different power states (Tick)
system.mem_ctrl.dram.rank1.pwrStateTime::SREF            0                       # Time in different power states (Tick)
system.mem_ctrl.dram.rank1.pwrStateTime::PRE_PDN            0                       # Time in different power states (Tick)
system.mem_ctrl.dram.rank1.pwrStateTime::ACT 1245520581250                       # Time in different power states (Tick)
system.mem_ctrl.dram.rank1.pwrStateTime::ACT_PDN            0                       # Time in different power states (Tick)
system.mem_ctrl.power_state.pwrStateResidencyTicks::UNDEFINED 1433276535000                       # Cumulative time (in ticks) in various power states (Tick)
system.membus.transDist::ReadReq             14462879                       # Transaction distribution (Count)
system.membus.transDist::ReadResp            14462878                       # Transaction distribution (Count)
system.membus.transDist::WriteReq              999153                       # Transaction distribution (Count)
system.membus.transDist::WriteResp             999153                       # Transaction distribution (Count)
system.membus.transDist::LockedRMWReadReq         5892                       # Transaction distribution (Count)
system.membus.transDist::LockedRMWReadResp         5892                       # Transaction distribution (Count)
system.membus.transDist::LockedRMWWriteReq         5892                       # Transaction distribution (Count)
system.membus.transDist::LockedRMWWriteResp         5892                       # Transaction distribution (Count)
system.membus.pktCount_system.cpu.icache_port::system.mem_ctrl.port     24548973                       # Packet count per connected requestor and responder (Count)
system.membus.pktCount_system.cpu.icache_port::total     24548973                       # Packet count per connected requestor and responder (Count)
system.membus.pktCount_system.cpu.dcache_port::system.mem_ctrl.port      6398658                       # Packet count per connected requestor and responder (Count)
system.membus.pktCount_system.cpu.dcache_port::total      6398658                       # Packet count per connected requestor and responder (Count)
system.membus.pktCount::total                30947631                       # Packet count per connected requestor and responder (Count)
system.membus.pktSize_system.cpu.icache_port::system.mem_ctrl.port     98195888                       # Cumulative packet size per connected requestor and responder (Byte)
system.membus.pktSize_system.cpu.icache_port::total     98195888                       # Cumulative packet size per connected requestor and responder (Byte)
system.membus.pktSize_system.cpu.dcache_port::system.mem_ctrl.port     22643637                       # Cumulative packet size per connected requestor and responder (Byte)
system.membus.pktSize_system.cpu.dcache_port::total     22643637                       # Cumulative packet size per connected requestor and responder (Byte)
system.membus.pktSize::total                120839525                       # Cumulative packet size per connected requestor and responder (Byte)
system.membus.snoops                                0                       # Total snoops (Count)
system.membus.snoopTraffic                          0                       # Total snoop traffic (Byte)
system.membus.snoopFanout::samples           15473816                       # Request fanout histogram (Count)
system.membus.snoopFanout::mean                     0                       # Request fanout histogram (Count)
system.membus.snoopFanout::stdev                    0                       # Request fanout histogram (Count)
system.membus.snoopFanout::underflows               0      0.00%      0.00% # Request fanout histogram (Count)
system.membus.snoopFanout::0                 15473816    100.00%    100.00% # Request fanout histogram (Count)
system.membus.snoopFanout::1                        0      0.00%    100.00% # Request fanout histogram (Count)
system.membus.snoopFanout::overflows                0      0.00%    100.00% # Request fanout histogram (Count)
system.membus.snoopFanout::min_value                0                       # Request fanout histogram (Count)
system.membus.snoopFanout::max_value                0                       # Request fanout histogram (Count)
system.membus.snoopFanout::total             15473816                       # Request fanout histogram (Count)
system.membus.power_state.pwrStateResidencyTicks::UNDEFINED 1433276535000                       # Cumulative time (in ticks) in various power states (Tick)
system.membus.reqLayer2.occupancy         82394305000                       # Layer occupancy (ticks) (Tick)
system.membus.reqLayer2.utilization               0.1                       # Layer utilization (Ratio)
system.membus.respLayer1.occupancy       139245077250                       # Layer occupancy (ticks) (Tick)
system.membus.respLayer1.utilization              0.1                       # Layer utilization (Ratio)
system.membus.respLayer2.occupancy        30744778750                       # Layer occupancy (ticks) (Tick)
system.membus.respLayer2.utilization              0.0                       # Layer utilization (Ratio)
system.membus.snoop_filter.totRequests              0                       # Total number of requests made to the snoop filter. (Count)
system.membus.snoop_filter.hitSingleRequests            0                       # Number of requests hitting in the snoop filter with a single holder of the requested data. (Count)
system.membus.snoop_filter.hitMultiRequests            0                       # Number of requests hitting in the snoop filter with multiple (>1) holders of the requested data. (Count)
system.membus.snoop_filter.totSnoops                0                       # Total number of snoops made to the snoop filter. (Count)
system.membus.snoop_filter.hitSingleSnoops            0                       # Number of snoops hitting in the snoop filter with a single holder of the requested data. (Count)
system.membus.snoop_filter.hitMultiSnoops            0                       # Number of snoops hitting in the snoop filter with multiple (>1) holders of the requested data. (Count)
system.workload.inst.arm                            0                       # number of arm instructions executed (Count)
system.workload.inst.quiesce                        0                       # number of quiesce instructions executed (Count)

---------- End Simulation Statistics   ----------

---------- Begin Simulation Statistics ----------
simSeconds                                   0.015296                       # Number of seconds simulated (Second)
simTicks                                  15296265000                       # Number of ticks simulated (Tick)
finalTick                                1448572800000                       # Number of ticks from beginning of simulation (restored from checkpoints and never reset) (Tick)
simFreq                                  1000000000000                       # The number of ticks per simulated second ((Tick/Second))
hostSeconds                                      0.39                       # Real time elapsed on the host (Second)
hostTickRate                              38786485315                       # The number of ticks simulated per host second (ticks/s) ((Tick/Second))
hostMemory                                    8673476                       # Number of bytes of host memory used (Byte)
simInsts                                      9196143                       # Number of instructions simulated (Count)
simOps                                       15291951                       # Number of ops (including micro ops) simulated (Count)
hostInstRate                                 23313837                       # Simulator instruction rate (inst/s) ((Count/Second))
hostOpRate                                   38766994                       # Simulator op (including micro ops) rate (op/s) ((Count/Second))
system.clk_domain.clock                          5000                       # Clock period in ticks (Tick)
system.clk_domain.voltage_domain.voltage            1                       # Voltage in Volts (Volt)
system.cpu.numCycles                          3059253                       # Number of cpu cycles simulated (Cycle)
system.cpu.cpi                              31.756732                       # CPI: cycles per instruction (core level) ((Cycle/Count))
system.cpu.ipc                               0.031489                       # IPC: instructions per cycle (core level) ((Count/Cycle))
system.cpu.numWorkItemsStarted                      0                       # Number of work items this cpu started (Count)
system.cpu.numWorkItemsCompleted                    0                       # Number of work items this cpu completed (Count)
system.cpu.commitStats0.numInsts                96334                       # Number of instructions committed (thread level) (Count)
system.cpu.commitStats0.numOps                 156712                       # Number of ops (including micro ops) committed (thread level) (Count)
system.cpu.commitStats0.numInstsNotNOP              0                       # Number of instructions committed excluding NOPs or prefetches (Count)
system.cpu.commitStats0.numOpsNotNOP                0                       # Number of Ops (including micro ops) Simulated (Count)
system.cpu.commitStats0.cpi                 31.756732                       # CPI: cycles per instruction (thread level) ((Cycle/Count))
system.cpu.commitStats0.ipc                  0.031489                       # IPC: instructions per cycle (thread level) ((Count/Cycle))
system.cpu.commitStats0.numMemRefs                  0                       # Number of memory references committed (Count)
system.cpu.commitStats0.numFpInsts              36706                       # Number of float instructions (Count)
system.cpu.commitStats0.numIntInsts            133335                       # Number of integer instructions (Count)
system.cpu.commitStats0.numLoadInsts            23444                       # Number of load instructions (Count)
system.cpu.commitStats0.numStoreInsts           10981                       # Number of store instructions (Count)
system.cpu.commitStats0.numVecInsts                 0                       # Number of vector instructions (Count)
system.cpu.commitStats0.committedInstType::No_OpClass          412      0.26%      0.26% # Class of committed instruction. (Count)
system.cpu.commitStats0.committedInstType::IntAlu       101674     64.88%     65.14% # Class of committed instruction. (Count)
system.cpu.commitStats0.committedInstType::IntMult           63      0.04%     65.18% # Class of committed instruction. (Count)
system.cpu.commitStats0.committedInstType::IntDiv          198      0.13%     65.31% # Class of committed instruction. (Count)
system.cpu.commitStats0.committedInstType::FloatAdd         7396      4.72%     70.03% # Class of committed instruction. (Count)
system.cpu.commitStats0.committedInstType::FloatCmp            0      0.00%     70.03% # Class of committed instruction. (Count)
system.cpu.commitStats0.committedInstType::FloatCvt            0      0.00%     70.03% # Class of committed instruction. (Count)
system.cpu.commitStats0.committedInstType::FloatMult            0      0.00%     70.03% # Class of committed instruction. (Count)
system.cpu.commitStats0.committedInstType::FloatMultAcc            0      0.00%     70.03% # Class of committed instruction. (Count)
system.cpu.commitStats0.committedInstType::FloatDiv            0      0.00%     70.03% # Class of committed instruction. (Count)
system.cpu.commitStats0.committedInstType::FloatMisc            0      0.00%     70.03% # Class of committed instruction. (Count)
system.cpu.commitStats0.committedInstType::FloatSqrt            0      0.00%     70.03% # Class of committed instruction. (Count)
system.cpu.commitStats0.committedInstType::SimdAdd            0      0.00%     70.03% # Class of committed instruction. (Count)
system.cpu.commitStats0.committedInstType::SimdAddAcc            0      0.00%     70.03% # Class of committed instruction. (Count)
system.cpu.commitStats0.committedInstType::SimdAlu         1104      0.70%     70.73% # Class of committed instruction. (Count)
system.cpu.commitStats0.committedInstType::SimdCmp            0      0.00%     70.73% # Class of committed instruction. (Count)
system.cpu.commitStats0.committedInstType::SimdCvt           28      0.02%     70.75% # Class of committed instruction. (Count)
system.cpu.commitStats0.committedInstType::SimdMisc          324      0.21%     70.96% # Class of committed instruction. (Count)
system.cpu.commitStats0.committedInstType::SimdMult            0      0.00%     70.96% # Class of committed instruction. (Count)
system.cpu.commitStats0.committedInstType::SimdMultAcc            0      0.00%     70.96% # Class of committed instruction. (Count)
system.cpu.commitStats0.committedInstType::SimdMatMultAcc            0      0.00%     70.96% # Class of committed instruction. (Count)
system.cpu.commitStats0.committedInstType::SimdShift            0      0.00%     70.96% # Class of committed instruction. (Count)
system.cpu.commitStats0.committedInstType::SimdShiftAcc            0      0.00%     70.96% # Class of committed instruction. (Count)
system.cpu.commitStats0.committedInstType::SimdDiv            0      0.00%     70.96% # Class of committed instruction. (Count)
system.cpu.commitStats0.committedInstType::SimdSqrt            0      0.00%     70.96% # Class of committed instruction. (Count)
system.cpu.commitStats0.committedInstType::SimdFloatAdd         4597      2.93%     73.89% # Class of committed instruction. (Count)
system.cpu.commitStats0.committedInstType::SimdFloatAlu            0      0.00%     73.89% # Class of committed instruction. (Count)
system.cpu.commitStats0.committedInstType::SimdFloatCmp          699      0.45%     74.34% # Class of committed instruction. (Count)
system.cpu.commitStats0.committedInstType::SimdFloatCvt         2965      1.89%     76.23% # Class of committed instruction. (Count)
system.cpu.commitStats0.committedInstType::SimdFloatDiv           90      0.06%     76.29% # Class of committed instruction. (Count)
system.cpu.commitStats0.committedInstType::SimdFloatMisc            0      0.00%     76.29% # Class of committed instruction. (Count)
system.cpu.commitStats0.committedInstType::SimdFloatMult         2703      1.72%     78.01% # Class of committed instruction. (Count)
system.cpu.commitStats0.committedInstType::SimdFloatMultAcc            0      0.00%     78.01% # Class of committed instruction. (Count)
system.cpu.commitStats0.committedInstType::SimdFloatMatMultAcc            0      0.00%     78.01% # Class of committed instruction. (Count)
system.cpu.commitStats0.committedInstType::SimdFloatSqrt           34      0.02%     78.03% # Class of committed instruction. (Count)
system.cpu.commitStats0.committedInstType::SimdReduceAdd            0      0.00%     78.03% # Class of committed instruction. (Count)
system.cpu.commitStats0.committedInstType::SimdReduceAlu            0      0.00%     78.03% # Class of committed instruction. (Count)
system.cpu.commitStats0.committedInstType::SimdReduceCmp            0      0.00%     78.03% # Class of committed instruction. (Count)
system.cpu.commitStats0.committedInstType::SimdFloatReduceAdd            0      0.00%     78.03% # Class of committed instruction. (Count)
system.cpu.commitStats0.committedInstType::SimdFloatReduceCmp            0      0.00%     78.03% # Class of committed instruction. (Count)
system.cpu.commitStats0.committedInstType::SimdAes            0      0.00%     78.03% # Class of committed instruction. (Count)
system.cpu.commitStats0.committedInstType::SimdAesMix            0      0.00%     78.03% # Class of committed instruction. (Count)
system.cpu.commitStats0.committedInstType::SimdSha1Hash            0      0.00%     78.03% # Class of committed instruction. (Count)
system.cpu.commitStats0.committedInstType::SimdSha1Hash2            0      0.00%     78.03% # Class of committed instruction. (Count)
system.cpu.commitStats0.committedInstType::SimdSha256Hash            0      0.00%     78.03% # Class of committed instruction. (Count)
system.cpu.commitStats0.committedInstType::SimdSha256Hash2            0      0.00%     78.03% # Class of committed instruction. (Count)
system.cpu.commitStats0.committedInstType::SimdShaSigma2            0      0.00%     78.03% # Class of committed instruction. (Count)
system.cpu.commitStats0.committedInstType::SimdShaSigma3            0      0.00%     78.03% # Class of committed instruction. (Count)
system.cpu.commitStats0.committedInstType::SimdPredAlu            0      0.00%     78.03% # Class of committed instruction. (Count)
system.cpu.commitStats0.committedInstType::Matrix            0      0.00%     78.03% # Class of committed instruction. (Count)
system.cpu.commitStats0.committedInstType::MatrixMov            0      0.00%     78.03% # Class of committed instruction. (Count)
system.cpu.commitStats0.committedInstType::MatrixOP            0      0.00%     78.03% # Class of committed instruction. (Count)
system.cpu.commitStats0.committedInstType::MemRead        13347      8.52%     86.55% # Class of committed instruction. (Count)
system.cpu.commitStats0.committedInstType::MemWrite         7279      4.64%     91.19% # Class of committed instruction. (Count)
system.cpu.commitStats0.committedInstType::FloatMemRead        10097      6.44%     97.64% # Class of committed instruction. (Count)
system.cpu.commitStats0.committedInstType::FloatMemWrite         3702      2.36%    100.00% # Class of committed instruction. (Count)
system.cpu.commitStats0.committedInstType::IprAccess            0      0.00%    100.00% # Class of committed instruction. (Count)
system.cpu.commitStats0.committedInstType::InstPrefetch            0      0.00%    100.00% # Class of committed instruction. (Count)
system.cpu.commitStats0.committedInstType::SimdUnitStrideLoad            0      0.00%    100.00% # Class of committed instruction. (Count)
system.cpu.commitStats0.committedInstType::SimdUnitStrideStore            0      0.00%    100.00% # Class of committed instruction. (Count)
system.cpu.commitStats0.committedInstType::SimdUnitStrideMaskLoad            0      0.00%    100.00% # Class of committed instruction. (Count)
system.cpu.commitStats0.committedInstType::SimdUnitStrideMaskStore            0      0.00%    100.00% # Class of committed instruction. (Count)
system.cpu.commitStats0.committedInstType::SimdStridedLoad            0      0.00%    100.00% # Class of committed instruction. (Count)
system.cpu.commitStats0.committedInstType::SimdStridedStore            0      0.00%    100.00% # Class of committed instruction. (Count)
system.cpu.commitStats0.committedInstType::SimdIndexedLoad            0      0.00%    100.00% # Class of committed instruction. (Count)
system.cpu.commitStats0.committedInstType::SimdIndexedStore            0      0.00%    100.00% # Class of committed instruction. (Count)
system.cpu.commitStats0.committedInstType::SimdWholeRegisterLoad            0      0.00%    100.00% # Class of committed instruction. (Count)
system.cpu.commitStats0.committedInstType::SimdWholeRegisterStore            0      0.00%    100.00% # Class of committed instruction. (Count)
system.cpu.commitStats0.committedInstType::SimdUnitStrideFaultOnlyFirstLoad            0      0.00%    100.00% # Class of committed instruction. (Count)
system.cpu.commitStats0.committedInstType::SimdUnitStrideSegmentedLoad            0      0.00%    100.00% # Class of committed instruction. (Count)
system.cpu.commitStats0.committedInstType::SimdUnitStrideSegmentedStore            0      0.00%    100.00% # Class of committed instruction. (Count)
system.cpu.commitStats0.committedInstType::SimdExt            0      0.00%    100.00% # Class of committed instruction. (Count)
system.cpu.commitStats0.committedInstType::SimdFloatExt            0      0.00%    100.00% # Class of committed instruction. (Count)
system.cpu.commitStats0.committedInstType::SimdConfig            0      0.00%    100.00% # Class of committed instruction. (Count)
[...]
system.mem_ctrl.dram.bwRead::cpu.data        12258254                       # Total read bandwidth from this memory ((Byte/Second))
system.mem_ctrl.dram.bwRead::total           77089767                       # Total read bandwidth from this memory ((Byte/Second))
system.mem_ctrl.dram.bwInstRead::cpu.inst     64831513                       # Instruction read bandwidth from this memory ((Byte/Second))
system.mem_ctrl.dram.bwInstRead::total       64831513                       # Instruction read bandwidth from this memory ((Byte/Second))
system.mem_ctrl.dram.bwWrite::cpu.data        6640468                       # Write bandwidth from this memory ((Byte/Second))
system.mem_ctrl.dram.bwWrite::total           6640468                       # Write bandwidth from this memory ((Byte/Second))
system.mem_ctrl.dram.bwTotal::cpu.inst       64831513                       # Total bandwidth to/from this memory ((Byte/Second))
system.mem_ctrl.dram.bwTotal::cpu.data       18898722                       # Total bandwidth to/from this memory ((Byte/Second))
system.mem_ctrl.dram.bwTotal::total          83730235                       # Total bandwidth to/from this memory ((Byte/Second))
system.mem_ctrl.dram.readBursts                 63210                       # Number of DRAM read bursts (Count)
system.mem_ctrl.dram.writeBursts                  558                       # Number of DRAM write bursts (Count)
system.mem_ctrl.dram.perBankRdBursts::0          2262                       # Per bank write bursts (Count)
system.mem_ctrl.dram.perBankRdBursts::1          1547                       # Per bank write bursts (Count)
system.mem_ctrl.dram.perBankRdBursts::2           949                       # Per bank write bursts (Count)
system.mem_ctrl.dram.perBankRdBursts::3          5290                       # Per bank write bursts (Count)
system.mem_ctrl.dram.perBankRdBursts::4           820                       # Per bank write bursts (Count)
system.mem_ctrl.dram.perBankRdBursts::5          1644                       # Per bank write bursts (Count)
system.mem_ctrl.dram.perBankRdBursts::6          1768                       # Per bank write bursts (Count)
system.mem_ctrl.dram.perBankRdBursts::7           684                       # Per bank write bursts (Count)
system.mem_ctrl.dram.perBankRdBursts::8           774                       # Per bank write bursts (Count)
system.mem_ctrl.dram.perBankRdBursts::9          1593                       # Per bank write bursts (Count)
system.mem_ctrl.dram.perBankRdBursts::10         1186                       # Per bank write bursts (Count)
system.mem_ctrl.dram.perBankRdBursts::11        13179                       # Per bank write bursts (Count)
system.mem_ctrl.dram.perBankRdBursts::12        12092                       # Per bank write bursts (Count)
system.mem_ctrl.dram.perBankRdBursts::13         1682                       # Per bank write bursts (Count)
system.mem_ctrl.dram.perBankRdBursts::14         9159                       # Per bank write bursts (Count)
system.mem_ctrl.dram.perBankRdBursts::15         8581                       # Per bank write bursts (Count)
system.mem_ctrl.dram.perBankWrBursts::0            42                       # Per bank write bursts (Count)
system.mem_ctrl.dram.perBankWrBursts::1            57                       # Per bank write bursts (Count)
system.mem_ctrl.dram.perBankWrBursts::2            37                       # Per bank write bursts (Count)
system.mem_ctrl.dram.perBankWrBursts::3           286                       # Per bank write bursts (Count)
system.mem_ctrl.dram.perBankWrBursts::4            12                       # Per bank write bursts (Count)
system.mem_ctrl.dram.perBankWrBursts::5            33                       # Per bank write bursts (Count)
system.mem_ctrl.dram.perBankWrBursts::6             0                       # Per bank write bursts (Count)
system.mem_ctrl.dram.perBankWrBursts::7             0                       # Per bank write bursts (Count)
system.mem_ctrl.dram.perBankWrBursts::8            13                       # Per bank write bursts (Count)
system.mem_ctrl.dram.perBankWrBursts::9             0                       # Per bank write bursts (Count)
system.mem_ctrl.dram.perBankWrBursts::10           19                       # Per bank write bursts (Count)
system.mem_ctrl.dram.perBankWrBursts::11            2                       # Per bank write bursts (Count)
system.mem_ctrl.dram.perBankWrBursts::12           37                       # Per bank write bursts (Count)
system.mem_ctrl.dram.perBankWrBursts::13            0                       # Per bank write bursts (Count)
system.mem_ctrl.dram.perBankWrBursts::14            1                       # Per bank write bursts (Count)
system.mem_ctrl.dram.perBankWrBursts::15           19                       # Per bank write bursts (Count)
system.mem_ctrl.dram.totQLat                311085500                       # Total ticks spent queuing (Tick)
system.mem_ctrl.dram.totBusLat              316050000                       # Total ticks spent in databus transfers (Tick)
system.mem_ctrl.dram.totMemAccLat          1496273000                       # Total ticks spent from burst creation until serviced by the DRAM (Tick)
system.mem_ctrl.dram.avgQLat                  4921.46                       # Average queueing delay per DRAM burst ((Tick/Count))
system.mem_ctrl.dram.avgBusLat                5000.00                       # Average bus latency per DRAM burst ((Tick/Count))
system.mem_ctrl.dram.avgMemAccLat            23671.46                       # Average memory access latency per DRAM burst ((Tick/Count))
system.mem_ctrl.dram.readRowHits                55229                       # Number of row buffer hits during reads (Count)
system.mem_ctrl.dram.writeRowHits                 437                       # Number of row buffer hits during writes (Count)
system.mem_ctrl.dram.readRowHitRate             87.37                       # Row buffer hit rate for reads (Ratio)
system.mem_ctrl.dram.writeRowHitRate            78.32                       # Row buffer hit rate for writes (Ratio)
system.mem_ctrl.dram.bytesPerActivate::samples         8100                       # Bytes accessed per row activation (Byte)
system.mem_ctrl.dram.bytesPerActivate::mean   503.766914                       # Bytes accessed per row activation (Byte)
system.mem_ctrl.dram.bytesPerActivate::gmean   309.023109                       # Bytes accessed per row activation (Byte)
system.mem_ctrl.dram.bytesPerActivate::stdev   403.641683                       # Bytes accessed per row activation (Byte)
system.mem_ctrl.dram.bytesPerActivate::0-127         1847     22.80%     22.80% # Bytes accessed per row activation (Byte)
system.mem_ctrl.dram.bytesPerActivate::128-255         1459     18.01%     40.81% # Bytes accessed per row activation (Byte)
system.mem_ctrl.dram.bytesPerActivate::256-383          675      8.33%     49.15% # Bytes accessed per row activation (Byte)
system.mem_ctrl.dram.bytesPerActivate::384-511          550      6.79%     55.94% # Bytes accessed per row activation (Byte)
system.mem_ctrl.dram.bytesPerActivate::512-639          338      4.17%     60.11% # Bytes accessed per row activation (Byte)
system.mem_ctrl.dram.bytesPerActivate::640-767          274      3.38%     63.49% # Bytes accessed per row activation (Byte)
system.mem_ctrl.dram.bytesPerActivate::768-895          234      2.89%     66.38% # Bytes accessed per row activation (Byte)
system.mem_ctrl.dram.bytesPerActivate::896-1023          254      3.14%     69.52% # Bytes accessed per row activation (Byte)
system.mem_ctrl.dram.bytesPerActivate::1024-1151         2469     30.48%    100.00% # Bytes accessed per row activation (Byte)
system.mem_ctrl.dram.bytesPerActivate::total         8100                       # Bytes accessed per row activation (Byte)
system.mem_ctrl.dram.dramBytesRead            4045440                       # Total bytes read (Byte)
system.mem_ctrl.dram.dramBytesWritten           35712                       # Total bytes written (Byte)
system.mem_ctrl.dram.avgRdBW               625.899681                       # Average DRAM read bandwidth in MiBytes/s ((Byte/Second))
system.mem_ctrl.dram.avgWrBW                 5.525265                       # Average DRAM write bandwidth in MiBytes/s ((Byte/Second))
system.mem_ctrl.dram.peakBW                  12800.00                       # Theoretical peak bandwidth in MiByte/s ((Byte/Second))
system.mem_ctrl.dram.busUtil                     4.93                       # Data bus utilization in percentage (Ratio)
system.mem_ctrl.dram.busUtilRead                 4.89                       # Data bus utilization in percentage for reads (Ratio)
system.mem_ctrl.dram.busUtilWrite                0.04                       # Data bus utilization in percentage for writes (Ratio)
system.mem_ctrl.dram.pageHitRate                87.29                       # Row buffer hit rate, read and write combined (Ratio)
system.mem_ctrl.dram.power_state.pwrStateResidencyTicks::UNDEFINED   6463400000                       # Cumulative time (in ticks) in various power states (Tick)
system.mem_ctrl.dram.rank0.actEnergy         25054260                       # Energy for activate commands per rank (pJ) (Joule)
system.mem_ctrl.dram.rank0.preEnergy         13309065                       # Energy for precharge commands per rank (pJ) (Joule)
system.mem_ctrl.dram.rank0.readEnergy       106842960                       # Energy for read commands per rank (pJ) (Joule)
system.mem_ctrl.dram.rank0.writeEnergy        2437740                       # Energy for write commands per rank (pJ) (Joule)
system.mem_ctrl.dram.rank0.refreshEnergy 510151200.000000                       # Energy for refresh commands per rank (pJ) (Joule)
system.mem_ctrl.dram.rank0.actBackEnergy   2477176680                       # Energy for active background per rank (pJ) (Joule)
system.mem_ctrl.dram.rank0.preBackEnergy    395902080                       # Energy for precharge background per rank (pJ) (Joule)
system.mem_ctrl.dram.rank0.actPowerDownEnergy            0                       # Energy for active power-down per rank (pJ) (Joule)
system.mem_ctrl.dram.rank0.prePowerDownEnergy            0                       # Energy for precharge power-down per rank (pJ) (Joule)
system.mem_ctrl.dram.rank0.selfRefreshEnergy            0                       # Energy for self refresh per rank (pJ) (Joule)
system.mem_ctrl.dram.rank0.totalEnergy     3530873985                       # Total energy per rank (pJ) (Joule)
system.mem_ctrl.dram.rank0.averagePower    546.287401                       # Core power per rank (mW) (Watt)
system.mem_ctrl.dram.rank0.totalIdleTime            0                       # Total Idle time Per DRAM Rank (Tick)
system.mem_ctrl.dram.rank0.pwrStateTime::IDLE   1006396250                       # Time in different power states (Tick)
system.mem_ctrl.dram.rank0.pwrStateTime::REF    215800000                       # Time in different power states (Tick)
system.mem_ctrl.dram.rank0.pwrStateTime::SREF            0                       # Time in different power states (Tick)
system.mem_ctrl.dram.rank0.pwrStateTime::PRE_PDN            0                       # Time in different power states (Tick)
system.mem_ctrl.dram.rank0.pwrStateTime::ACT   5241203750                       # Time in different power states (Tick)
system.mem_ctrl.dram.rank0.pwrStateTime::ACT_PDN            0                       # Time in different power states (Tick)
system.mem_ctrl.dram.rank1.actEnergy         32794020                       # Energy for activate commands per rank (pJ) (Joule)
system.mem_ctrl.dram.rank1.preEnergy         17430435                       # Energy for precharge commands per rank (pJ) (Joule)
system.mem_ctrl.dram.rank1.readEnergy       344476440                       # Energy for read commands per rank (pJ) (Joule)
system.mem_ctrl.dram.rank1.writeEnergy         475020                       # Energy for write commands per rank (pJ) (Joule)
system.mem_ctrl.dram.rank1.refreshEnergy 510151200.000000                       # Energy for refresh commands per rank (pJ) (Joule)
system.mem_ctrl.dram.rank1.actBackEnergy   2783234760                       # Energy for active background per rank (pJ) (Joule)
system.mem_ctrl.dram.rank1.preBackEnergy    138168960                       # Energy for precharge background per rank (pJ) (Joule)
system.mem_ctrl.dram.rank1.actPowerDownEnergy            0                       # Energy for active power-down per rank (pJ) (Joule)
system.mem_ctrl.dram.rank1.prePowerDownEnergy            0                       # Energy for precharge power-down per rank (pJ) (Joule)
system.mem_ctrl.dram.rank1.selfRefreshEnergy            0                       # Energy for self refresh per rank (pJ) (Joule)
system.mem_ctrl.dram.rank1.totalEnergy     3826730835                       # Total energy per rank (pJ) (Joule)
system.mem_ctrl.dram.rank1.averagePower    592.061583                       # Core power per rank (mW) (Watt)
system.mem_ctrl.dram.rank1.totalIdleTime            0                       # Total Idle time Per DRAM Rank (Tick)
system.mem_ctrl.dram.rank1.pwrStateTime::IDLE    326565000                       # Time in different power states (Tick)
system.mem_ctrl.dram.rank1.pwrStateTime::REF    215800000                       # Time in different power states (Tick)
system.mem_ctrl.dram.rank1.pwrStateTime::SREF            0                       # Time in different power states (Tick)
system.mem_ctrl.dram.rank1.pwrStateTime::PRE_PDN            0                       # Time in different power states (Tick)
system.mem_ctrl.dram.rank1.pwrStateTime::ACT   5921035000                       # Time in different power states (Tick)
system.mem_ctrl.dram.rank1.pwrStateTime::ACT_PDN            0                       # Time in different power states (Tick)
system.mem_ctrl.power_state.pwrStateResidencyTicks::UNDEFINED   6463400000                       # Cumulative time (in ticks) in various power states (Tick)
system.membus.transDist::ReadReq                64071                       # Transaction distribution (Count)
system.membus.transDist::ReadResp               64072                       # Transaction distribution (Count)
system.membus.transDist::WriteReq                5748                       # Transaction distribution (Count)
system.membus.transDist::WriteResp               5748                       # Transaction distribution (Count)
system.membus.transDist::LockedRMWReadReq          219                       # Transaction distribution (Count)
system.membus.transDist::LockedRMWReadResp          219                       # Transaction distribution (Count)
system.membus.transDist::LockedRMWWriteReq          219                       # Transaction distribution (Count)
system.membus.transDist::LockedRMWWriteResp          219                       # Transaction distribution (Count)
system.membus.pktCount_system.cpu.icache_port::system.mem_ctrl.port       104757                       # Packet count per connected requestor and responder (Count)
system.membus.pktCount_system.cpu.icache_port::total       104757                       # Packet count per connected requestor and responder (Count)
system.membus.pktCount_system.cpu.dcache_port::system.mem_ctrl.port        35758                       # Packet count per connected requestor and responder (Count)
system.membus.pktCount_system.cpu.dcache_port::total        35758                       # Packet count per connected requestor and responder (Count)
system.membus.pktCount::total                  140515                       # Packet count per connected requestor and responder (Count)
system.membus.pktSize_system.cpu.icache_port::system.mem_ctrl.port       419032                       # Cumulative packet size per connected requestor and responder (Byte)
system.membus.pktSize_system.cpu.icache_port::total       419032                       # Cumulative packet size per connected requestor and responder (Byte)
system.membus.pktSize_system.cpu.dcache_port::system.mem_ctrl.port       122150                       # Cumulative packet size per connected requestor and responder (Byte)
system.membus.pktSize_system.cpu.dcache_port::total       122150                       # Cumulative packet size per connected requestor and responder (Byte)
system.membus.pktSize::total                   541182                       # Cumulative packet size per connected requestor and responder (Byte)
system.membus.snoops                                0                       # Total snoops (Count)
system.membus.snoopTraffic                          0                       # Total snoop traffic (Byte)
system.membus.snoopFanout::samples              70257                       # Request fanout histogram (Count)
system.membus.snoopFanout::mean                     0                       # Request fanout histogram (Count)
system.membus.snoopFanout::stdev                    0                       # Request fanout histogram (Count)
system.membus.snoopFanout::underflows               0      0.00%      0.00% # Request fanout histogram (Count)
system.membus.snoopFanout::0                    70257    100.00%    100.00% # Request fanout histogram (Count)
system.membus.snoopFanout::1                        0      0.00%    100.00% # Request fanout histogram (Count)
system.membus.snoopFanout::overflows                0      0.00%    100.00% # Request fanout histogram (Count)
system.membus.snoopFanout::min_value                0                       # Request fanout histogram (Count)
system.membus.snoopFanout::max_value                0                       # Request fanout histogram (Count)
system.membus.snoopFanout::total                70257                       # Request fanout histogram (Count)
system.membus.power_state.pwrStateResidencyTicks::UNDEFINED   6463400000                       # Cumulative time (in ticks) in various power states (Tick)
system.membus.reqLayer2.occupancy           381120000                       # Layer occupancy (ticks) (Tick)
system.membus.reqLayer2.utilization               0.1                       # Layer utilization (Ratio)
system.membus.respLayer1.occupancy          594567000                       # Layer occupancy (ticks) (Tick)
system.membus.respLayer1.utilization              0.1                       # Layer utilization (Ratio)
system.membus.respLayer2.occupancy          168223750                       # Layer occupancy (ticks) (Tick)
system.membus.respLayer2.utilization              0.0                       # Layer utilization (Ratio)
system.membus.snoop_filter.totRequests              0                       # Total number of requests made to the snoop filter. (Count)
system.membus.snoop_filter.hitSingleRequests            0                       # Number of requests hitting in the snoop filter with a single holder of the requested data. (Count)
system.membus.snoop_filter.hitMultiRequests            0                       # Number of requests hitting in the snoop filter with multiple (>1) holders of the requested data. (Count)
system.membus.snoop_filter.totSnoops                0                       # Total number of snoops made to the snoop filter. (Count)
system.membus.snoop_filter.hitSingleSnoops            0                       # Number of snoops hitting in the snoop filter with a single holder of the requested data. (Count)
system.membus.snoop_filter.hitMultiSnoops            0                       # Number of snoops hitting in the snoop filter with multiple (>1) holders of the requested data. (Count)
system.workload.inst.arm                            0                       # number of arm instructions executed (Count)
system.workload.inst.quiesce                        0                       # number of quiesce instructions executed (Count)

---------- End Simulation Statistics   ----------
