
---------- Begin Simulation Statistics ----------
simSeconds                                   2.364814                       # Number of seconds simulated (Second)
simTicks                                 2364814120000                       # Number of ticks simulated (Tick)
finalTick                                2364814120000                       # Number of ticks from beginning of simulation (restored from checkpoints and never reset) (Tick)
simFreq                                  1000000000000                       # The number of ticks per simulated second ((Tick/Second))
hostSeconds                                     62.14                       # Real time elapsed on the host (Second)
hostTickRate                              38058171297                       # The number of ticks simulated per host second (ticks/s) ((Tick/Second))
hostMemory                                    8646112                       # Number of bytes of host memory used (Byte)
simInsts                                     14469923                       # Number of instructions simulated (Count)
simOps                                       24635802                       # Number of ops (including micro ops) simulated (Count)
hostInstRate                                   232872                       # Simulator instruction rate (inst/s) ((Count/Second))
hostOpRate                                     396476                       # Simulator op (including micro ops) rate (op/s) ((Count/Second))
system.clk_domain.clock                          5000                       # Clock period in ticks (Tick)
system.clk_domain.voltage_domain.voltage            1                       # Voltage in Volts (Volt)
system.cpu.numCycles                        472962824                       # Number of cpu cycles simulated (Cycle)
system.cpu.cpi                              32.679920                       # CPI: cycles per instruction (core level) ((Cycle/Count))
system.cpu.ipc                               0.030600                       # IPC: instructions per cycle (core level) ((Count/Cycle))
system.cpu.numWorkItemsStarted                      0                       # Number of work items this cpu started (Count)
system.cpu.numWorkItemsCompleted                    0                       # Number of work items this cpu completed (Count)
system.cpu.commitStats0.numInsts             14472582                       # Number of instructions committed (thread level) (Count)
system.cpu.commitStats0.numOps               24638643                       # Number of ops (including micro ops) committed (thread level) (Count)
system.cpu.commitStats0.numInstsNotNOP              0                       # Number of instructions committed excluding NOPs or prefetches (Count)
system.cpu.commitStats0.numOpsNotNOP                0                       # Number of Ops (including micro ops) Simulated (Count)
system.cpu.commitStats0.cpi                 32.679920                       # CPI: cycles per instruction (thread level) ((Cycle/Count))
system.cpu.commitStats0.ipc                  0.030600                       # IPC: instructions per cycle (thread level) ((Count/Cycle))
system.cpu.commitStats0.numMemRefs                  0                       # Number of memory references committed (Count)
system.cpu.commitStats0.numFpInsts             184276                       # Number of float instructions (Count)
system.cpu.commitStats0.numIntInsts          24004715                       # Number of integer instructions (Count)
system.cpu.commitStats0.numLoadInsts          3899698                       # Number of load instructions (Count)
system.cpu.commitStats0.numStoreInsts         2612487                       # Number of store instructions (Count)
system.cpu.commitStats0.numVecInsts                 0                       # Number of vector instructions (Count)
system.cpu.commitStats0.committedInstType::No_OpClass       350687      1.42%      1.42% # Class of committed instruction. (Count)
system.cpu.commitStats0.committedInstType::IntAlu     17352917     70.43%     71.85% # Class of committed instruction. (Count)
system.cpu.commitStats0.committedInstType::IntMult       260420      1.06%     72.91% # Class of committed instruction. (Count)
system.cpu.commitStats0.committedInstType::IntDiv        59602      0.24%     73.15% # Class of committed instruction. (Count)
system.cpu.commitStats0.committedInstType::FloatAdd        12678      0.05%     73.20% # Class of committed instruction. (Count)
system.cpu.commitStats0.committedInstType::FloatCmp            0      0.00%     73.20% # Class of committed instruction. (Count)
system.cpu.commitStats0.committedInstType::FloatCvt         1408      0.01%     73.21% # Class of committed instruction. (Count)
system.cpu.commitStats0.committedInstType::FloatMult            0      0.00%     73.21% # Class of committed instruction. (Count)
system.cpu.commitStats0.committedInstType::FloatMultAcc            0      0.00%     73.21% # Class of committed instruction. (Count)
system.cpu.commitStats0.committedInstType::FloatDiv            0      0.00%     73.21% # Class of committed instruction. (Count)
system.cpu.commitStats0.committedInstType::FloatMisc            0      0.00%     73.21% # Class of committed instruction. (Count)
system.cpu.commitStats0.committedInstType::FloatSqrt            0      0.00%     73.21% # Class of committed instruction. (Count)
system.cpu.commitStats0.committedInstType::SimdAdd         6950      0.03%     73.24% # Class of committed instruction. (Count)
system.cpu.commitStats0.committedInstType::SimdAddAcc            0      0.00%     73.24% # Class of committed instruction. (Count)
system.cpu.commitStats0.committedInstType::SimdAlu        27100      0.11%     73.35% # Class of committed instruction. (Count)
system.cpu.commitStats0.committedInstType::SimdCmp            6      0.00%     73.35% # Class of committed instruction. (Count)
system.cpu.commitStats0.committedInstType::SimdCvt        18728      0.08%     73.42% # Class of committed instruction. (Count)
system.cpu.commitStats0.committedInstType::SimdMisc        28495      0.12%     73.54% # Class of committed instruction. (Count)
system.cpu.commitStats0.committedInstType::SimdMult            0      0.00%     73.54% # Class of committed instruction. (Count)
system.cpu.commitStats0.committedInstType::SimdMultAcc            0      0.00%     73.54% # Class of committed instruction. (Count)
system.cpu.commitStats0.committedInstType::SimdMatMultAcc            0      0.00%     73.54% # Class of committed instruction. (Count)
system.cpu.commitStats0.committedInstType::SimdShift         1985      0.01%     73.55% # Class of committed instruction. (Count)
system.cpu.commitStats0.committedInstType::SimdShiftAcc            0      0.00%     73.55% # Class of committed instruction. (Count)
system.cpu.commitStats0.committedInstType::SimdDiv            0      0.00%     73.55% # Class of committed instruction. (Count)
system.cpu.commitStats0.committedInstType::SimdSqrt            0      0.00%     73.55% # Class of committed instruction. (Count)
system.cpu.commitStats0.committedInstType::SimdFloatAdd         1827      0.01%     73.55% # Class of committed instruction. (Count)
system.cpu.commitStats0.committedInstType::SimdFloatAlu            0      0.00%     73.55% # Class of committed instruction. (Count)
system.cpu.commitStats0.committedInstType::SimdFloatCmp            0      0.00%     73.55% # Class of committed instruction. (Count)
system.cpu.commitStats0.committedInstType::SimdFloatCvt         2160      0.01%     73.56% # Class of committed instruction. (Count)
system.cpu.commitStats0.committedInstType::SimdFloatDiv          416      0.00%     73.56% # Class of committed instruction. (Count)
system.cpu.commitStats0.committedInstType::SimdFloatMisc            0      0.00%     73.56% # Class of committed instruction. (Count)
system.cpu.commitStats0.committedInstType::SimdFloatMult          996      0.00%     73.57% # Class of committed instruction. (Count)
system.cpu.commitStats0.committedInstType::SimdFloatMultAcc            0      0.00%     73.57% # Class of committed instruction. (Count)
system.cpu.commitStats0.committedInstType::SimdFloatMatMultAcc            0      0.00%     73.57% # Class of committed instruction. (Count)
system.cpu.commitStats0.committedInstType::SimdFloatSqrt           83      0.00%     73.57% # Class of committed instruction. (Count)
system.cpu.commitStats0.committedInstType::SimdReduceAdd            0      0.00%     73.57% # Class of committed instruction. (Count)
system.cpu.commitStats0.committedInstType::SimdReduceAlu            0      0.00%     73.57% # Class of committed instruction. (Count)
system.cpu.commitStats0.committedInstType::SimdReduceCmp            0      0.00%     73.57% # Class of committed instruction. (Count)
system.cpu.commitStats0.committedInstType::SimdFloatReduceAdd            0      0.00%     73.57% # Class of committed instruction. (Count)
system.cpu.commitStats0.committedInstType::SimdFloatReduceCmp            0      0.00%     73.57% # Class of committed instruction. (Count)
system.cpu.commitStats0.committedInstType::SimdAes            0      0.00%     73.57% # Class of committed instruction. (Count)
system.cpu.commitStats0.committedInstType::SimdAesMix            0      0.00%     73.57% # Class of committed instruction. (Count)
system.cpu.commitStats0.committedInstType::SimdSha1Hash            0      0.00%     73.57% # Class of committed instruction. (Count)
system.cpu.commitStats0.committedInstType::SimdSha1Hash2            0      0.00%     73.57% # Class of committed instruction. (Count)
system.cpu.commitStats0.committedInstType::SimdSha256Hash            0      0.00%     73.57% # Class of committed instruction. (Count)
system.cpu.commitStats0.committedInstType::SimdSha256Hash2            0      0.00%     73.57% # Class of committed instruction. (Count)
system.cpu.commitStats0.committedInstType::SimdShaSigma2            0      0.00%     73.57% # Class of committed instruction. (Count)
system.cpu.commitStats0.committedInstType::SimdShaSigma3            0      0.00%     73.57% # Class of committed instruction. (Count)
system.cpu.commitStats0.committedInstType::SimdPredAlu            0      0.00%     73.57% # Class of committed instruction. (Count)
system.cpu.commitStats0.committedInstType::Matrix            0      0.00%     73.57% # Class of committed instruction. (Count)
system.cpu.commitStats0.committedInstType::MatrixMov            0      0.00%     73.57% # Class of committed instruction. (Count)
system.cpu.commitStats0.committedInstType::MatrixOP            0      0.00%     73.57% # Class of committed instruction. (Count)
system.cpu.commitStats0.committedInstType::MemRead      3864543     15.68%     89.25% # Class of committed instruction. (Count)
system.cpu.commitStats0.committedInstType::MemWrite      2576108     10.46%     99.71% # Class of committed instruction. (Count)
system.cpu.commitStats0.committedInstType::FloatMemRead        35155      0.14%     99.85% # Class of committed instruction. (Count)
system.cpu.commitStats0.committedInstType::FloatMemWrite        36379      0.15%    100.00% # Class of committed instruction. (Count)
system.cpu.commitStats0.committedInstType::IprAccess            0      0.00%    100.00% # Class of committed instruction. (Count)
system.cpu.commitStats0.committedInstType::InstPrefetch            0      0.00%    100.00% # Class of committed instruction. (Count)
system.cpu.commitStats0.committedInstType::SimdUnitStrideLoad            0      0.00%    100.00% # Class of committed instruction. (Count)
system.cpu.commitStats0.committedInstType::SimdUnitStrideStore            0      0.00%    100.00% # Class of committed instruction. (Count)
system.cpu.commitStats0.committedInstType::SimdUnitStrideMaskLoad            0      0.00%    100.00% # Class of committed instruction. (Count)
system.cpu.commitStats0.committedInstType::SimdUnitStrideMaskStore            0      0.00%    100.00% # Class of committed instruction. (Count)
system.cpu.commitStats0.committedInstType::SimdStridedLoad            0      0.00%    100.00% # Class of committed instruction. (Count)
system.cpu.commitStats0.committedInstType::SimdStridedStore            0      0.00%    100.00% # Class of committed instruction. (Count)
system.cpu.commitStats0.committedInstType::SimdIndexedLoad            0      0.00%    100.00% # Class of committed instruction. (Count)
system.cpu.commitStats0.committedInstType::SimdIndexedStore            0      0.00%    100.00% # Class of committed instruction. (Count)
system.cpu.commitStats0.committedInstType::SimdWholeRegisterLoad            0      0.00%    100.00% # Class of committed instruction. (Count)
system.cpu.commitStats0.committedInstType::SimdWholeRegisterStore            0      0.00%    100.00% # Class of committed instruction. (Count)
system.cpu.commitStats0.committedInstType::SimdUnitStrideFaultOnlyFirstLoad            0      0.00%    100.00% # Class of committed instruction. (Count)
system.cpu.commitStats0.committedInstType::SimdUnitStrideSegmentedLoad            0      0.00%    100.00% # Class of committed instruction. (Count)
system.cpu.commitStats0.committedInstType::SimdUnitStrideSegmentedStore            0      0.00%    100.00% # Class of committed instruction. (Count)
system.cpu.commitStats0.committedInstType::SimdExt            0      0.00%    100.00% # Class of committed instruction. (Count)
system.cpu.commitStats0.committedInstType::SimdFloatExt            0      0.00%    100.00% # Class of committed instruction. (Count)
system.cpu.commitStats0.committedInstType::SimdConfig            0      0.00%    100.00% # Class of committed instruction. (Count)
system.cpu.commitStats0.committedInstType::total     24638643                       # Class of committed instruction. (Count)
system.cpu.commitStats0.committedControl::IsControl      2038742                       # Class of control type instructions committed (Count)
system.cpu.commitStats0.committedControl::IsDirectControl      1709686                       # Class of control type instructions committed (Count)
system.cpu.commitStats0.committedControl::IsIndirectControl       328775                       # Class of control type instructions committed (Count)
system.cpu.commitStats0.committedControl::IsCondControl      1348372                       # Class of control type instructions committed (Count)
system.cpu.commitStats0.committedControl::IsUncondControl       690089                       # Class of control type instructions committed (Count)
system.cpu.commitStats0.committedControl::IsCall       297917                       # Class of control type instructions committed (Count)
system.cpu.commitStats0.committedControl::IsReturn       297912                       # Class of control type instructions committed (Count)
system.cpu.exec_context.thread_0.numMatAluAccesses            0                       # Number of matrix alu accesses (Count)
system.cpu.exec_context.thread_0.numCallsReturns       595829                       # Number of times a function call or return occured (Count)
system.cpu.exec_context.thread_0.numMatInsts            0                       # Number of matrix instructions (Count)
system.cpu.exec_context.thread_0.numIdleCycles            0                       # Number of idle cycles (Cycle)
system.cpu.exec_context.thread_0.numBusyCycles    472962824                       # Number of busy cycles (Cycle)
system.cpu.exec_context.thread_0.notIdleFraction            1                       # Percentage of non-idle cycles (Ratio)
system.cpu.exec_context.thread_0.idleFraction            0                       # Percentage of idle cycles (Ratio)
system.cpu.executeStats0.numInsts                   0                       # Number of executed instructions (Count)
system.cpu.executeStats0.numNop                     0                       # Number of nop insts executed (Count)
system.cpu.executeStats0.numBranches                0                       # Number of branches executed (Count)
system.cpu.executeStats0.numLoadInsts               0                       # Number of load instructions executed (Count)
system.cpu.executeStats0.numStoreInsts        6512185                       # Number of stores executed (Count)
system.cpu.executeStats0.instRate                   0                       # Inst execution rate ((Count/Cycle))
system.cpu.executeStats0.numFpAluAccesses       184276                       # Number of float alu accesses (Count)
system.cpu.executeStats0.numFpRegReads         243385                       # Number of times the floating registers were read (Count)
system.cpu.executeStats0.numFpRegWrites        133006                       # Number of times the floating registers were written (Count)
system.cpu.executeStats0.numIntAluAccesses     24004715                       # Number of integer alu accesses (Count)
system.cpu.executeStats0.numIntRegReads      30526202                       # Number of times the integer registers were read (Count)
system.cpu.executeStats0.numIntRegWrites     18300535                       # Number of times the integer registers were written (Count)
system.cpu.executeStats0.numMemRefs           6512185                       # Number of memory refs (Count)
system.cpu.executeStats0.numMiscRegReads     10318055                       # Number of times the Misc registers were read (Count)
system.cpu.executeStats0.numMiscRegWrites          792                       # Number of times the Misc registers were written (Count)
system.cpu.executeStats0.numVecAluAccesses            0                       # Number of vector alu accesses (Count)
system.cpu.executeStats0.numDiscardedOps            0                       # Number of ops (including micro ops) which were discarded before commit (Count)
system.cpu.fetchStats0.numInsts              14472582                       # Number of instructions fetched (thread level) (Count)
system.cpu.fetchStats0.numOps                24638643                       # Number of ops (including micro ops) fetched (thread level) (Count)
system.cpu.fetchStats0.fetchRate             0.030600                       # Number of inst fetches per cycle ((Count/Cycle))
system.cpu.fetchStats0.numBranches            2038742                       # Number of branches fetched (Count)
system.cpu.fetchStats0.branchRate            0.004311                       # Number of branch fetches per cycle (Ratio)
system.cpu.fetchStats0.numFetchSuspends             0                       # Number of times Execute suspended instruction fetching (Count)
system.cpu.interrupts.clk_domain.clock          80000                       # Clock period in ticks (Tick)
system.cpu.mmu.dtb.rdAccesses                 3899985                       # TLB accesses on read requests (Count)
system.cpu.mmu.dtb.wrAccesses                 2612509                       # TLB accesses on write requests (Count)
system.cpu.mmu.dtb.rdMisses                      1989                       # TLB misses on read requests (Count)
system.cpu.mmu.dtb.wrMisses                      1039                       # TLB misses on write requests (Count)
system.cpu.mmu.dtb.walker.power_state.pwrStateResidencyTicks::UNDEFINED 2364814120000                       # Cumulative time (in ticks) in various power states (Tick)
system.cpu.mmu.itb.rdAccesses                       0                       # TLB accesses on read requests (Count)
system.cpu.mmu.itb.wrAccesses                19399700                       # TLB accesses on write requests (Count)
system.cpu.mmu.itb.rdMisses                         0                       # TLB misses on read requests (Count)
system.cpu.mmu.itb.wrMisses                      6111                       # TLB misses on write requests (Count)
system.cpu.mmu.itb.walker.power_state.pwrStateResidencyTicks::UNDEFINED 2364814120000                       # Cumulative time (in ticks) in various power states (Tick)
system.cpu.power_state.pwrStateResidencyTicks::ON 2364814120000                       # Cumulative time (in ticks) in various power states (Tick)
system.cpu.thread_0.numInsts                        0                       # Number of Instructions committed (Count)
system.cpu.thread_0.numOps                          0                       # Number of Ops committed (Count)
system.cpu.thread_0.numMemRefs                      0                       # Number of Memory References (Count)
system.cpu.workload.numSyscalls                  2099                       # Number of system calls (Count)
system.mem_ctrl.avgPriority_cpu.inst::samples  19399556.00                       # Average QoS priority value for accepted requests (Count)
system.mem_ctrl.avgPriority_cpu.data::samples   3591995.00                       # Average QoS priority value for accepted requests (Count)
system.mem_ctrl.priorityMinLatency       0.000000018750                       # per QoS priority minimum request to response latency (Second)
system.mem_ctrl.priorityMaxLatency       0.035850142500                       # per QoS priority maximum request to response latency (Second)
system.mem_ctrl.numReadWriteTurnArounds          8802                       # Number of turnarounds from READ to WRITE (Count)
system.mem_ctrl.numWriteReadTurnArounds          8802                       # Number of turnarounds from WRITE to READ (Count)
system.mem_ctrl.numStayReadState             48890382                       # Number of times bus staying in READ state (Count)
system.mem_ctrl.numStayWriteState              144747                       # Number of times bus staying in WRITE state (Count)
system.mem_ctrl.readReqs                     23299286                       # Number of read requests accepted (Count)
system.mem_ctrl.writeReqs                     2612021                       # Number of write requests accepted (Count)
system.mem_ctrl.readBursts                   23299286                       # Number of controller read bursts, including those serviced by the write queue (Count)
system.mem_ctrl.writeBursts                   2612021                       # Number of controller write bursts, including those merged in the write queue (Count)
system.mem_ctrl.servicedByWrQ                  460931                       # Number of controller read bursts serviced by the write queue (Count)
system.mem_ctrl.mergedWrBursts                2458825                       # Number of controller write bursts merged with an existing one (Count)
system.mem_ctrl.neitherReadNorWriteReqs             0                       # Number of requests that are neither read nor write (Count)
system.mem_ctrl.avgRdQLen                        1.00                       # Average read queue length when enqueuing ((Count/Tick))
system.mem_ctrl.avgWrQLen                       26.86                       # Average write queue length when enqueuing ((Count/Tick))
system.mem_ctrl.numRdRetry                          0                       # Number of times read queue was full causing retry (Count)
system.mem_ctrl.numWrRetry                          0                       # Number of times write queue was full causing retry (Count)
system.mem_ctrl.readPktSize::0                 489802                       # Read request sizes (log2) (Count)
system.mem_ctrl.readPktSize::1                  18857                       # Read request sizes (log2) (Count)
system.mem_ctrl.readPktSize::2                 419076                       # Read request sizes (log2) (Count)
system.mem_ctrl.readPktSize::3               22371551                       # Read request sizes (log2) (Count)
system.mem_ctrl.readPktSize::4                      0                       # Read request sizes (log2) (Count)
system.mem_ctrl.readPktSize::5                      0                       # Read request sizes (log2) (Count)
system.mem_ctrl.readPktSize::6                      0                       # Read request sizes (log2) (Count)
system.mem_ctrl.writePktSize::0                148398                       # Write request sizes (log2) (Count)
system.mem_ctrl.writePktSize::1                  7111                       # Write request sizes (log2) (Count)
system.mem_ctrl.writePktSize::2                200528                       # Write request sizes (log2) (Count)
system.mem_ctrl.writePktSize::3               2255984                       # Write request sizes (log2) (Count)
system.mem_ctrl.writePktSize::4                     0                       # Write request sizes (log2) (Count)
system.mem_ctrl.writePktSize::5                     0                       # Write request sizes (log2) (Count)
system.mem_ctrl.writePktSize::6                     0                       # Write request sizes (log2) (Count)
system.mem_ctrl.rdQLenPdf::0                 22838081                       # What read queue length does an incoming req see (Count)
system.mem_ctrl.rdQLenPdf::1                      274                       # What read queue length does an incoming req see (Count)
system.mem_ctrl.rdQLenPdf::2                        0                       # What read queue length does an incoming req see (Count)
system.mem_ctrl.rdQLenPdf::3                        0                       # What read queue length does an incoming req see (Count)
system.mem_ctrl.rdQLenPdf::4                        0                       # What read queue length does an incoming req see (Count)
system.mem_ctrl.rdQLenPdf::5                        0                       # What read queue length does an incoming req see (Count)
system.mem_ctrl.rdQLenPdf::6                        0                       # What read queue length does an incoming req see (Count)
system.mem_ctrl.rdQLenPdf::7                        0                       # What read queue length does an incoming req see (Count)
system.mem_ctrl.rdQLenPdf::8                        0                       # What read queue length does an incoming req see (Count)
system.mem_ctrl.rdQLenPdf::9                        0                       # What read queue length does an incoming req see (Count)
system.mem_ctrl.rdQLenPdf::10                       0                       # What read queue length does an incoming req see (Count)
system.mem_ctrl.rdQLenPdf::11                       0                       # What read queue length does an incoming req see (Count)
system.mem_ctrl.rdQLenPdf::12                       0                       # What read queue length does an incoming req see (Count)
system.mem_ctrl.rdQLenPdf::13                       0                       # What read queue length does an incoming req see (Count)
system.mem_ctrl.rdQLenPdf::14                       0                       # What read queue length does an incoming req see (Count)
system.mem_ctrl.rdQLenPdf::15                       0                       # What read queue length does an incoming req see (Count)
system.mem_ctrl.rdQLenPdf::16                       0                       # What read queue length does an incoming req see (Count)
system.mem_ctrl.rdQLenPdf::17                       0                       # What read queue length does an incoming req see (Count)
system.mem_ctrl.rdQLenPdf::18                       0                       # What read queue length does an incoming req see (Count)
system.mem_ctrl.rdQLenPdf::19                       0                       # What read queue length does an incoming req see (Count)
system.mem_ctrl.rdQLenPdf::20                       0                       # What read queue length does an incoming req see (Count)
system.mem_ctrl.rdQLenPdf::21                       0                       # What read queue length does an incoming req see (Count)
system.mem_ctrl.rdQLenPdf::22                       0                       # What read queue length does an incoming req see (Count)
system.mem_ctrl.rdQLenPdf::23                       0                       # What read queue length does an incoming req see (Count)
system.mem_ctrl.rdQLenPdf::24                       0                       # What read queue length does an incoming req see (Count)
system.mem_ctrl.rdQLenPdf::25                       0                       # What read queue length does an incoming req see (Count)
system.mem_ctrl.rdQLenPdf::26                       0                       # What read queue length does an incoming req see (Count)
system.mem_ctrl.rdQLenPdf::27                       0                       # What read queue length does an incoming req see (Count)
system.mem_ctrl.rdQLenPdf::28                       0                       # What read queue length does an incoming req see (Count)
system.mem_ctrl.rdQLenPdf::29                       0                       # What read queue length does an incoming req see (Count)
system.mem_ctrl.rdQLenPdf::30                       0                       # What read queue length does an incoming req see (Count)
system.mem_ctrl.rdQLenPdf::31                       0                       # What read queue length does an incoming req see (Count)
system.mem_ctrl.wrQLenPdf::0                        1                       # What write queue length does an incoming req see (Count)
system.mem_ctrl.wrQLenPdf::1                        1                       # What write queue length does an incoming req see (Count)
system.mem_ctrl.wrQLenPdf::2                        1                       # What write queue length does an incoming req see (Count)
system.mem_ctrl.wrQLenPdf::3                        1                       # What write queue length does an incoming req see (Count)
system.mem_ctrl.wrQLenPdf::4                        1                       # What write queue length does an incoming req see (Count)
system.mem_ctrl.wrQLenPdf::5                        1                       # What write queue length does an incoming req see (Count)
system.mem_ctrl.wrQLenPdf::6                        1                       # What write queue length does an incoming req see (Count)
system.mem_ctrl.wrQLenPdf::7                        1                       # What write queue length does an incoming req see (Count)
system.mem_ctrl.wrQLenPdf::8                        1                       # What write queue length does an incoming req see (Count)
system.mem_ctrl.wrQLenPdf::9                        1                       # What write queue length does an incoming req see (Count)
system.mem_ctrl.wrQLenPdf::10                       1                       # What write queue length does an incoming req see (Count)
system.mem_ctrl.wrQLenPdf::11                       1                       # What write queue length does an incoming req see (Count)
system.mem_ctrl.wrQLenPdf::12                       1                       # What write queue length does an incoming req see (Count)
system.mem_ctrl.wrQLenPdf::13                       1                       # What write queue length does an incoming req see (Count)
system.mem_ctrl.wrQLenPdf::14                       1                       # What write queue length does an incoming req see (Count)
system.mem_ctrl.wrQLenPdf::15                    4354                       # What write queue length does an incoming req see (Count)
system.mem_ctrl.wrQLenPdf::16                    7991                       # What write queue length does an incoming req see (Count)
system.mem_ctrl.wrQLenPdf::17                    8793                       # What write queue length does an incoming req see (Count)
system.mem_ctrl.wrQLenPdf::18                    8803                       # What write queue length does an incoming req see (Count)
system.mem_ctrl.wrQLenPdf::19                    8802                       # What write queue length does an incoming req see (Count)
system.mem_ctrl.wrQLenPdf::20                    8802                       # What write queue length does an incoming req see (Count)
system.mem_ctrl.wrQLenPdf::21                    8802                       # What write queue length does an incoming req see (Count)
system.mem_ctrl.wrQLenPdf::22                    8802                       # What write queue length does an incoming req see (Count)
system.mem_ctrl.wrQLenPdf::23                    8802                       # What write queue length does an incoming req see (Count)
system.mem_ctrl.wrQLenPdf::24                    8813                       # What write queue length does an incoming req see (Count)
system.mem_ctrl.wrQLenPdf::25                    8802                       # What write queue length does an incoming req see (Count)
system.mem_ctrl.wrQLenPdf::26                    8802                       # What write queue length does an incoming req see (Count)
system.mem_ctrl.wrQLenPdf::27                    8802                       # What write queue length does an incoming req see (Count)
system.mem_ctrl.wrQLenPdf::28                    8803                       # What write queue length does an incoming req see (Count)
system.mem_ctrl.wrQLenPdf::29                    8802                       # What write queue length does an incoming req see (Count)
system.mem_ctrl.wrQLenPdf::30                    8802                       # What write queue length does an incoming req see (Count)
system.mem_ctrl.wrQLenPdf::31                    8802                       # What write queue length does an incoming req see (Count)
system.mem_ctrl.wrQLenPdf::32                    8802                       # What write queue length does an incoming req see (Count)
system.mem_ctrl.wrQLenPdf::33                       0                       # What write queue length does an incoming req see (Count)
system.mem_ctrl.wrQLenPdf::34                       0                       # What write queue length does an incoming req see (Count)
system.mem_ctrl.wrQLenPdf::35                       0                       # What write queue length does an incoming req see (Count)
system.mem_ctrl.wrQLenPdf::36                       0                       # What write queue length does an incoming req see (Count)
system.mem_ctrl.wrQLenPdf::37                       0                       # What write queue length does an incoming req see (Count)
system.mem_ctrl.wrQLenPdf::38                       0                       # What write queue length does an incoming req see (Count)
system.mem_ctrl.wrQLenPdf::39                       0                       # What write queue length does an incoming req see (Count)
system.mem_ctrl.wrQLenPdf::40                       0                       # What write queue length does an incoming req see (Count)
system.mem_ctrl.wrQLenPdf::41                       0                       # What write queue length does an incoming req see (Count)
system.mem_ctrl.wrQLenPdf::42                       0                       # What write queue length does an incoming req see (Count)
system.mem_ctrl.wrQLenPdf::43                       0                       # What write queue length does an incoming req see (Count)
system.mem_ctrl.wrQLenPdf::44                       0                       # What write queue length does an incoming req see (Count)
system.mem_ctrl.wrQLenPdf::45                       0                       # What write queue length does an incoming req see (Count)
system.mem_ctrl.wrQLenPdf::46                       0                       # What write queue length does an incoming req see (Count)
system.mem_ctrl.wrQLenPdf::47                       0                       # What write queue length does an incoming req see (Count)
system.mem_ctrl.wrQLenPdf::48                       0                       # What write queue length does an incoming req see (Count)
system.mem_ctrl.wrQLenPdf::49                       0                       # What write queue length does an incoming req see (Count)
system.mem_ctrl.wrQLenPdf::50                       0                       # What write queue length does an incoming req see (Count)
system.mem_ctrl.wrQLenPdf::51                       0                       # What write queue length does an incoming req see (Count)
system.mem_ctrl.wrQLenPdf::52                       0                       # What write queue length does an incoming req see (Count)
system.mem_ctrl.wrQLenPdf::53                       0                       # What write queue length does an incoming req see (Count)
system.mem_ctrl.wrQLenPdf::54                       0                       # What write queue length does an incoming req see (Count)
system.mem_ctrl.wrQLenPdf::55                       0                       # What write queue length does an incoming req see (Count)
system.mem_ctrl.wrQLenPdf::56                       0                       # What write queue length does an incoming req see (Count)
system.mem_ctrl.wrQLenPdf::57                       0                       # What write queue length does an incoming req see (Count)
system.mem_ctrl.wrQLenPdf::58                       0                       # What write queue length does an incoming req see (Count)
system.mem_ctrl.wrQLenPdf::59                       0                       # What write queue length does an incoming req see (Count)
system.mem_ctrl.wrQLenPdf::60                       0                       # What write queue length does an incoming req see (Count)
system.mem_ctrl.wrQLenPdf::61                       0                       # What write queue length does an incoming req see (Count)
system.mem_ctrl.wrQLenPdf::62                       0                       # What write queue length does an incoming req see (Count)
system.mem_ctrl.wrQLenPdf::63                       0                       # What write queue length does an incoming req see (Count)
system.mem_ctrl.rdPerTurnAround::samples         8802                       # Reads before turning the bus around for writes (Count)
system.mem_ctrl.rdPerTurnAround::mean     2594.660304                       # Reads before turning the bus around for writes (Count)
system.mem_ctrl.rdPerTurnAround::stdev    3712.101843                       # Reads before turning the bus around for writes (Count)
system.mem_ctrl.rdPerTurnAround::0-4095          7181     81.58%     81.58% # Reads before turning the bus around for writes (Count)
system.mem_ctrl.rdPerTurnAround::4096-8191         1401     15.92%     97.50% # Reads before turning the bus around for writes (Count)
system.mem_ctrl.rdPerTurnAround::8192-12287          119      1.35%     98.85% # Reads before turning the bus around for writes (Count)
system.mem_ctrl.rdPerTurnAround::12288-16383           31      0.35%     99.20% # Reads before turning the bus around for writes (Count)
system.mem_ctrl.rdPerTurnAround::16384-20479           21      0.24%     99.44% # Reads before turning the bus around for writes (Count)
system.mem_ctrl.rdPerTurnAround::20480-24575           11      0.12%     99.57% # Reads before turning the bus around for writes (Count)
system.mem_ctrl.rdPerTurnAround::24576-28671            7      0.08%     99.65% # Reads before turning the bus around for writes (Count)
system.mem_ctrl.rdPerTurnAround::28672-32767            6      0.07%     99.72% # Reads before turning the bus around for writes (Count)
system.mem_ctrl.rdPerTurnAround::32768-36863            2      0.02%     99.74% # Reads before turning the bus around for writes (Count)
system.mem_ctrl.rdPerTurnAround::36864-40959            4      0.05%     99.78% # Reads before turning the bus around for writes (Count)
system.mem_ctrl.rdPerTurnAround::40960-45055            6      0.07%     99.85% # Reads before turning the bus around for writes (Count)
system.mem_ctrl.rdPerTurnAround::45056-49151            2      0.02%     99.88% # Reads before turning the bus around for writes (Count)
system.mem_ctrl.rdPerTurnAround::49152-53247            2      0.02%     99.90% # Reads before turning the bus around for writes (Count)
system.mem_ctrl.rdPerTurnAround::53248-57343            4      0.05%     99.94% # Reads before turning the bus around for writes (Count)
system.mem_ctrl.rdPerTurnAround::61440-65535            1      0.01%     99.95% # Reads before turning the bus around for writes (Count)
system.mem_ctrl.rdPerTurnAround::65536-69631            1      0.01%     99.97% # Reads before turning the bus around for writes (Count)
system.mem_ctrl.rdPerTurnAround::73728-77823            1      0.01%     99.98% # Reads before turning the bus around for writes (Count)
system.mem_ctrl.rdPerTurnAround::77824-81919            1      0.01%     99.99% # Reads before turning the bus around for writes (Count)
system.mem_ctrl.rdPerTurnAround::81920-86015            1      0.01%    100.00% # Reads before turning the bus around for writes (Count)
system.mem_ctrl.rdPerTurnAround::total           8802                       # Reads before turning the bus around for writes (Count)
system.mem_ctrl.wrPerTurnAround::samples         8802                       # Writes before turning the bus around for reads (Count)
system.mem_ctrl.wrPerTurnAround::mean       17.402522                       # Writes before turning the bus around for reads (Count)
system.mem_ctrl.wrPerTurnAround::gmean      17.390075                       # Writes before turning the bus around for reads (Count)
system.mem_ctrl.wrPerTurnAround::stdev       0.652655                       # Writes before turning the bus around for reads (Count)
system.mem_ctrl.wrPerTurnAround::16               813      9.24%      9.24% # Writes before turning the bus around for reads (Count)
system.mem_ctrl.wrPerTurnAround::17              3636     41.31%     50.55% # Writes before turning the bus around for reads (Count)
system.mem_ctrl.wrPerTurnAround::18              4350     49.42%     99.97% # Writes before turning the bus around for reads (Count)
system.mem_ctrl.wrPerTurnAround::19                 3      0.03%    100.00% # Writes before turning the bus around for reads (Count)
system.mem_ctrl.wrPerTurnAround::total           8802                       # Writes before turning the bus around for reads (Count)
system.mem_ctrl.bytesReadWrQ                 29499584                       # Total number of bytes read from write queue (Byte)
system.mem_ctrl.bytesReadSys                181176160                       # Total read bytes from the system interface side (Byte)
system.mem_ctrl.bytesWrittenSys              19012579                       # Total written bytes from the system interface side (Byte)
system.mem_ctrl.avgRdBWSys               76613277.32599972                       # Average system read bandwidth in Byte/s ((Byte/Second))
system.mem_ctrl.avgWrBWSys               8039777.35044985                       # Average system write bandwidth in Byte/s ((Byte/Second))
system.mem_ctrl.totGap                   2364814000000                       # Total gap between requests (Tick)
system.mem_ctrl.avgGap                       91265.72                       # Average gap between requests ((Tick/Count))
system.mem_ctrl.requestorReadBytes::cpu.inst    155196448                       # Per-requestor bytes read from memory (Byte)
system.mem_ctrl.requestorReadBytes::cpu.data     22844502                       # Per-requestor bytes read from memory (Byte)
system.mem_ctrl.requestorWriteBytes::cpu.data      1153239                       # Per-requestor bytes write to memory (Byte)
system.mem_ctrl.requestorReadRate::cpu.inst 65627334.802956938744                       # Per-requestor bytes read from memory rate ((Byte/Second))
system.mem_ctrl.requestorReadRate::cpu.data 9660168.131946031004                       # Per-requestor bytes read from memory rate ((Byte/Second))
system.mem_ctrl.requestorWriteRate::cpu.data 487665.812820840220                       # Per-requestor bytes write to memory rate ((Byte/Second))
system.mem_ctrl.requestorReadAccesses::cpu.inst     19399556                       # Per-requestor read serviced memory accesses (Count)
system.mem_ctrl.requestorReadAccesses::cpu.data      3899730                       # Per-requestor read serviced memory accesses (Count)
system.mem_ctrl.requestorWriteAccesses::cpu.data      2612021                       # Per-requestor write serviced memory accesses (Count)
system.mem_ctrl.requestorReadTotalLat::cpu.inst 446786469500                       # Per-requestor read total memory access latency (Tick)
system.mem_ctrl.requestorReadTotalLat::cpu.data  89857572500                       # Per-requestor read total memory access latency (Tick)
system.mem_ctrl.requestorWriteTotalLat::cpu.data 62871139023250                       # Per-requestor write total memory access latency (Tick)
system.mem_ctrl.requestorReadAvgLat::cpu.inst     23030.76                       # Per-requestor read average memory access latency ((Tick/Count))
system.mem_ctrl.requestorReadAvgLat::cpu.data     23042.00                       # Per-requestor read average memory access latency ((Tick/Count))
system.mem_ctrl.requestorWriteAvgLat::cpu.data  24069920.96                       # Per-requestor write average memory access latency ((Tick/Count))
system.mem_ctrl.dram.bytesRead::cpu.inst    155196440                       # Number of bytes read from this memory (Byte)
system.mem_ctrl.dram.bytesRead::cpu.data     25979712                       # Number of bytes read from this memory (Byte)
system.mem_ctrl.dram.bytesRead::total       181176152                       # Number of bytes read from this memory (Byte)
system.mem_ctrl.dram.bytesInstRead::cpu.inst    155196440                       # Number of instructions bytes read from this memory (Byte)
system.mem_ctrl.dram.bytesInstRead::total    155196440                       # Number of instructions bytes read from this memory (Byte)
system.mem_ctrl.dram.bytesWritten::cpu.data     19012579                       # Number of bytes written to this memory (Byte)
system.mem_ctrl.dram.bytesWritten::total     19012579                       # Number of bytes written to this memory (Byte)
system.mem_ctrl.dram.numReads::cpu.inst      19399555                       # Number of read requests responded to by this memory (Count)
system.mem_ctrl.dram.numReads::cpu.data       3899730                       # Number of read requests responded to by this memory (Count)
system.mem_ctrl.dram.numReads::total         23299285                       # Number of read requests responded to by this memory (Count)
system.mem_ctrl.dram.numWrites::cpu.data      2612021                       # Number of write requests responded to by this memory (Count)
system.mem_ctrl.dram.numWrites::total         2612021                       # Number of write requests responded to by this memory (Count)
system.mem_ctrl.dram.bwRead::cpu.inst        65627331                       # Total read bandwidth from this memory ((Byte/Second))
system.mem_ctrl.dram.bwRead::cpu.data        10985943                       # Total read bandwidth from this memory ((Byte/Second))
system.mem_ctrl.dram.bwRead::total           76613274                       # Total read bandwidth from this memory ((Byte/Second))
system.mem_ctrl.dram.bwInstRead::cpu.inst     65627331                       # Instruction read bandwidth from this memory ((Byte/Second))
system.mem_ctrl.dram.bwInstRead::total       65627331                       # Instruction read bandwidth from this memory ((Byte/Second))
system.mem_ctrl.dram.bwWrite::cpu.data        8039777                       # Write bandwidth from this memory ((Byte/Second))
system.mem_ctrl.dram.bwWrite::total           8039777                       # Write bandwidth from this memory ((Byte/Second))
system.mem_ctrl.dram.bwTotal::cpu.inst       65627331                       # Total bandwidth to/from this memory ((Byte/Second))
system.mem_ctrl.dram.bwTotal::cpu.data       19025720                       # Total bandwidth to/from this memory ((Byte/Second))
system.mem_ctrl.dram.bwTotal::total          84653051                       # Total bandwidth to/from this memory ((Byte/Second))
system.mem_ctrl.dram.readBursts              22838355                       # Number of DRAM read bursts (Count)
system.mem_ctrl.dram.writeBursts               153177                       # Number of DRAM write bursts (Count)
system.mem_ctrl.dram.perBankRdBursts::0        331400                       # Per bank write bursts (Count)
system.mem_ctrl.dram.perBankRdBursts::1       1607339                       # Per bank write bursts (Count)
system.mem_ctrl.dram.perBankRdBursts::2        127211                       # Per bank write bursts (Count)
system.mem_ctrl.dram.perBankRdBursts::3        788220                       # Per bank write bursts (Count)
system.mem_ctrl.dram.perBankRdBursts::4         88366                       # Per bank write bursts (Count)
system.mem_ctrl.dram.perBankRdBursts::5        544644                       # Per bank write bursts (Count)
system.mem_ctrl.dram.perBankRdBursts::6        897849                       # Per bank write bursts (Count)
system.mem_ctrl.dram.perBankRdBursts::7       1803716                       # Per bank write bursts (Count)
system.mem_ctrl.dram.perBankRdBursts::8        531494                       # Per bank write bursts (Count)
system.mem_ctrl.dram.perBankRdBursts::9        183911                       # Per bank write bursts (Count)
system.mem_ctrl.dram.perBankRdBursts::10      4932986                       # Per bank write bursts (Count)
system.mem_ctrl.dram.perBankRdBursts::11      4000674                       # Per bank write bursts (Count)
system.mem_ctrl.dram.perBankRdBursts::12       364640                       # Per bank write bursts (Count)
system.mem_ctrl.dram.perBankRdBursts::13      2907125                       # Per bank write bursts (Count)
system.mem_ctrl.dram.perBankRdBursts::14      3111526                       # Per bank write bursts (Count)
system.mem_ctrl.dram.perBankRdBursts::15       617254                       # Per bank write bursts (Count)
system.mem_ctrl.dram.perBankWrBursts::0          1075                       # Per bank write bursts (Count)
system.mem_ctrl.dram.perBankWrBursts::1          9986                       # Per bank write bursts (Count)
system.mem_ctrl.dram.perBankWrBursts::2          1217                       # Per bank write bursts (Count)
system.mem_ctrl.dram.perBankWrBursts::3          1847                       # Per bank write bursts (Count)
system.mem_ctrl.dram.perBankWrBursts::4          1033                       # Per bank write bursts (Count)
system.mem_ctrl.dram.perBankWrBursts::5          1326                       # Per bank write bursts (Count)
system.mem_ctrl.dram.perBankWrBursts::6         33226                       # Per bank write bursts (Count)
system.mem_ctrl.dram.perBankWrBursts::7         73355                       # Per bank write bursts (Count)
system.mem_ctrl.dram.perBankWrBursts::8           854                       # Per bank write bursts (Count)
system.mem_ctrl.dram.perBankWrBursts::9           762                       # Per bank write bursts (Count)
system.mem_ctrl.dram.perBankWrBursts::10         1078                       # Per bank write bursts (Count)
system.mem_ctrl.dram.perBankWrBursts::11         2744                       # Per bank write bursts (Count)
system.mem_ctrl.dram.perBankWrBursts::12        15836                       # Per bank write bursts (Count)
system.mem_ctrl.dram.perBankWrBursts::13         1619                       # Per bank write bursts (Count)
system.mem_ctrl.dram.perBankWrBursts::14         1154                       # Per bank write bursts (Count)
system.mem_ctrl.dram.perBankWrBursts::15         6065                       # Per bank write bursts (Count)
system.mem_ctrl.dram.totQLat             108424885750                       # Total ticks spent queuing (Tick)
system.mem_ctrl.dram.totBusLat           114191775000                       # Total ticks spent in databus transfers (Tick)
system.mem_ctrl.dram.totMemAccLat        536644042000                       # Total ticks spent from burst creation until serviced by the DRAM (Tick)
system.mem_ctrl.dram.avgQLat                  4747.49                       # Average queueing delay per DRAM burst ((Tick/Count))
system.mem_ctrl.dram.avgBusLat                5000.00                       # Average bus latency per DRAM burst ((Tick/Count))
system.mem_ctrl.dram.avgMemAccLat            23497.49                       # Average memory access latency per DRAM burst ((Tick/Count))
system.mem_ctrl.dram.readRowHits             20247378                       # Number of row buffer hits during reads (Count)
system.mem_ctrl.dram.writeRowHits              132172                       # Number of row buffer hits during writes (Count)
system.mem_ctrl.dram.readRowHitRate             88.66                       # Row buffer hit rate for reads (Ratio)
system.mem_ctrl.dram.writeRowHitRate            86.29                       # Row buffer hit rate for writes (Ratio)
system.mem_ctrl.dram.bytesPerActivate::samples      2611974                       # Bytes accessed per row activation (Byte)
system.mem_ctrl.dram.bytesPerActivate::mean   563.350245                       # Bytes accessed per row activation (Byte)
system.mem_ctrl.dram.bytesPerActivate::gmean   363.258891                       # Bytes accessed per row activation (Byte)
system.mem_ctrl.dram.bytesPerActivate::stdev   401.981662                       # Bytes accessed per row activation (Byte)
system.mem_ctrl.dram.bytesPerActivate::0-127       533572     20.43%     20.43% # Bytes accessed per row activation (Byte)
system.mem_ctrl.dram.bytesPerActivate::128-255       299907     11.48%     31.91% # Bytes accessed per row activation (Byte)
system.mem_ctrl.dram.bytesPerActivate::256-383       288714     11.05%     42.96% # Bytes accessed per row activation (Byte)
system.mem_ctrl.dram.bytesPerActivate::384-511       142741      5.46%     48.43% # Bytes accessed per row activation (Byte)
system.mem_ctrl.dram.bytesPerActivate::512-639       120329      4.61%     53.04% # Bytes accessed per row activation (Byte)
system.mem_ctrl.dram.bytesPerActivate::640-767       118403      4.53%     57.57% # Bytes accessed per row activation (Byte)
system.mem_ctrl.dram.bytesPerActivate::768-895       103228      3.95%     61.52% # Bytes accessed per row activation (Byte)
system.mem_ctrl.dram.bytesPerActivate::896-1023        85223      3.26%     64.78% # Bytes accessed per row activation (Byte)
system.mem_ctrl.dram.bytesPerActivate::1024-1151       919857     35.22%    100.00% # Bytes accessed per row activation (Byte)
system.mem_ctrl.dram.bytesPerActivate::total      2611974                       # Bytes accessed per row activation (Byte)
system.mem_ctrl.dram.dramBytesRead         1461654720                       # Total bytes read (Byte)
system.mem_ctrl.dram.dramBytesWritten         9803328                       # Total bytes written (Byte)
system.mem_ctrl.dram.avgRdBW               618.084401                       # Average DRAM read bandwidth in MiBytes/s ((Byte/Second))
system.mem_ctrl.dram.avgWrBW                 4.145496                       # Average DRAM write bandwidth in MiBytes/s ((Byte/Second))
system.mem_ctrl.dram.peakBW                  12800.00                       # Theoretical peak bandwidth in MiByte/s ((Byte/Second))
system.mem_ctrl.dram.busUtil                     4.86                       # Data bus utilization in percentage (Ratio)
system.mem_ctrl.dram.busUtilRead                 4.83                       # Data bus utilization in percentage for reads (Ratio)
system.mem_ctrl.dram.busUtilWrite                0.03                       # Data bus utilization in percentage for writes (Ratio)
system.mem_ctrl.dram.pageHitRate                88.64                       # Row buffer hit rate, read and write combined (Ratio)
system.mem_ctrl.dram.power_state.pwrStateResidencyTicks::UNDEFINED 2364814120000                       # Cumulative time (in ticks) in various power states (Tick)
system.mem_ctrl.dram.rank0.actEnergy       8363517540                       # Energy for activate commands per rank (pJ) (Joule)
system.mem_ctrl.dram.rank0.preEnergy       4445299815                       # Energy for precharge commands per rank (pJ) (Joule)
system.mem_ctrl.dram.rank0.readEnergy     44187639300                       # Energy for read commands per rank (pJ) (Joule)
system.mem_ctrl.dram.rank0.writeEnergy      642399300                       # Energy for write commands per rank (pJ) (Joule)
system.mem_ctrl.dram.rank0.refreshEnergy 186676002240.000031                       # Energy for refresh commands per rank (pJ) (Joule)
system.mem_ctrl.dram.rank0.actBackEnergy 877370351100                       # Energy for active background per rank (pJ) (Joule)
system.mem_ctrl.dram.rank0.preBackEnergy 169250431680                       # Energy for precharge background per rank (pJ) (Joule)
system.mem_ctrl.dram.rank0.actPowerDownEnergy            0                       # Energy for active power-down per rank (pJ) (Joule)
system.mem_ctrl.dram.rank0.prePowerDownEnergy            0                       # Energy for precharge power-down per rank (pJ) (Joule)
system.mem_ctrl.dram.rank0.selfRefreshEnergy            0                       # Energy for self refresh per rank (pJ) (Joule)
system.mem_ctrl.dram.rank0.totalEnergy   1290935640975                       # Total energy per rank (pJ) (Joule)
system.mem_ctrl.dram.rank0.averagePower    545.893070                       # Core power per rank (mW) (Watt)
system.mem_ctrl.dram.rank0.totalIdleTime            0                       # Total Idle time Per DRAM Rank (Tick)
system.mem_ctrl.dram.rank0.pwrStateTime::IDLE 430086593750                       # Time in different power states (Tick)
system.mem_ctrl.dram.rank0.pwrStateTime::REF  78966160000                       # Time in different power states (Tick)
system.mem_ctrl.dram.rank0.pwrStateTime::SREF            0                       # Time in different power states (Tick)
system.mem_ctrl.dram.rank0.pwrStateTime::PRE_PDN            0                       # Time in different power states (Tick)
system.mem_ctrl.dram.rank0.pwrStateTime::ACT 1855761366250                       # Time in different power states (Tick)
system.mem_ctrl.dram.rank0.pwrStateTime::ACT_PDN            0                       # Time in different power states (Tick)
system.mem_ctrl.dram.rank1.actEnergy      10286033940                       # Energy for activate commands per rank (pJ) (Joule)
system.mem_ctrl.dram.rank1.preEnergy       5467141515                       # Energy for precharge commands per rank (pJ) (Joule)
system.mem_ctrl.dram.rank1.readEnergy    118878215400                       # Energy for read commands per rank (pJ) (Joule)
system.mem_ctrl.dram.rank1.writeEnergy      157184640                       # Energy for write commands per rank (pJ) (Joule)
system.mem_ctrl.dram.rank1.refreshEnergy 186676002240.000031                       # Energy for refresh commands per rank (pJ) (Joule)
system.mem_ctrl.dram.rank1.actBackEnergy 978253556130                       # Energy for active background per rank (pJ) (Joule)
system.mem_ctrl.dram.rank1.preBackEnergy  84296153760                       # Energy for precharge background per rank (pJ) (Joule)
system.mem_ctrl.dram.rank1.actPowerDownEnergy            0                       # Energy for active power-down per rank (pJ) (Joule)
system.mem_ctrl.dram.rank1.prePowerDownEnergy            0                       # Energy for precharge power-down per rank (pJ) (Joule)
system.mem_ctrl.dram.rank1.selfRefreshEnergy            0                       # Energy for self refresh per rank (pJ) (Joule)
system.mem_ctrl.dram.rank1.totalEnergy   1384014287625                       # Total energy per rank (pJ) (Joule)
system.mem_ctrl.dram.rank1.averagePower    585.252886                       # Core power per rank (mW) (Watt)
system.mem_ctrl.dram.rank1.totalIdleTime            0                       # Total Idle time Per DRAM Rank (Tick)
system.mem_ctrl.dram.rank1.pwrStateTime::IDLE 204359707000                       # Time in different power states (Tick)
system.mem_ctrl.dram.rank1.pwrStateTime::REF  78966160000                       # Time in different power states (Tick)
system.mem_ctrl.dram.rank1.pwrStateTime::SREF            0                       # Time in different power states (Tick)
system.mem_ctrl.dram.rank1.pwrStateTime::PRE_PDN            0                       # Time in different power states (Tick)
system.mem_ctrl.dram.rank1.pwrStateTime::ACT 2081488253000                       # Time in different power states (Tick)
system.mem_ctrl.dram.rank1.pwrStateTime::ACT_PDN            0                       # Time in different power states (Tick)
system.mem_ctrl.power_state.pwrStateResidencyTicks::UNDEFINED 2364814120000                       # Cumulative time (in ticks) in various power states (Tick)
system.membus.transDist::ReadReq             23218645                       # Transaction distribution (Count)
system.membus.transDist::ReadResp            23218644                       # Transaction distribution (Count)
system.membus.transDist::WriteReq             2531380                       # Transaction distribution (Count)
system.membus.transDist::WriteResp            2531380                       # Transaction distribution (Count)
system.membus.transDist::LockedRMWReadReq        80641                       # Transaction distribution (Count)
system.membus.transDist::LockedRMWReadResp        80641                       # Transaction distribution (Count)
system.membus.transDist::LockedRMWWriteReq        80641                       # Transaction distribution (Count)
system.membus.transDist::LockedRMWWriteResp        80641                       # Transaction distribution (Count)
system.membus.pktCount_system.cpu.icache_port::system.mem_ctrl.port     38799111                       # Packet count per connected requestor and responder (Count)
system.membus.pktCount_system.cpu.icache_port::total     38799111                       # Packet count per connected requestor and responder (Count)
system.membus.pktCount_system.cpu.dcache_port::system.mem_ctrl.port     13023502                       # Packet count per connected requestor and responder (Count)
system.membus.pktCount_system.cpu.dcache_port::total     13023502                       # Packet count per connected requestor and responder (Count)
system.membus.pktCount::total                51822613                       # Packet count per connected requestor and responder (Count)
system.membus.pktSize_system.cpu.icache_port::system.mem_ctrl.port    155196440                       # Cumulative packet size per connected requestor and responder (Byte)
system.membus.pktSize_system.cpu.icache_port::total    155196440                       # Cumulative packet size per connected requestor and responder (Byte)
system.membus.pktSize_system.cpu.dcache_port::system.mem_ctrl.port     44992291                       # Cumulative packet size per connected requestor and responder (Byte)
system.membus.pktSize_system.cpu.dcache_port::total     44992291                       # Cumulative packet size per connected requestor and responder (Byte)
system.membus.pktSize::total                200188731                       # Cumulative packet size per connected requestor and responder (Byte)
system.membus.snoops                                0                       # Total snoops (Count)
system.membus.snoopTraffic                          0                       # Total snoop traffic (Byte)
system.membus.snoopFanout::samples           25911307                       # Request fanout histogram (Count)
system.membus.snoopFanout::mean                     0                       # Request fanout histogram (Count)
system.membus.snoopFanout::stdev                    0                       # Request fanout histogram (Count)
system.membus.snoopFanout::underflows               0      0.00%      0.00% # Request fanout histogram (Count)
system.membus.snoopFanout::0                 25911307    100.00%    100.00% # Request fanout histogram (Count)
system.membus.snoopFanout::1                        0      0.00%    100.00% # Request fanout histogram (Count)
system.membus.snoopFanout::overflows                0      0.00%    100.00% # Request fanout histogram (Count)
system.membus.snoopFanout::min_value                0                       # Request fanout histogram (Count)
system.membus.snoopFanout::max_value                0                       # Request fanout histogram (Count)
system.membus.snoopFanout::total             25911307                       # Request fanout histogram (Count)
system.membus.power_state.pwrStateResidencyTicks::UNDEFINED 2364814120000                       # Cumulative time (in ticks) in various power states (Tick)
system.membus.reqLayer2.occupancy        142616640000                       # Layer occupancy (ticks) (Tick)
system.membus.reqLayer2.utilization               0.1                       # Layer utilization (Ratio)
system.membus.respLayer1.occupancy       220346164250                       # Layer occupancy (ticks) (Tick)
system.membus.respLayer1.utilization              0.1                       # Layer utilization (Ratio)
system.membus.respLayer2.occupancy        57778445000                       # Layer occupancy (ticks) (Tick)
system.membus.respLayer2.utilization              0.0                       # Layer utilization (Ratio)
system.membus.snoop_filter.totRequests              0                       # Total number of requests made to the snoop filter. (Count)
system.membus.snoop_filter.hitSingleRequests            0                       # Number of requests hitting in the snoop filter with a single holder of the requested data. (Count)
system.membus.snoop_filter.hitMultiRequests            0                       # Number of requests hitting in the snoop filter with multiple (>1) holders of the requested data. (Count)
system.membus.snoop_filter.totSnoops                0                       # Total number of snoops made to the snoop filter. (Count)
system.membus.snoop_filter.hitSingleSnoops            0                       # Number of snoops hitting in the snoop filter with a single holder of the requested data. (Count)
system.membus.snoop_filter.hitMultiSnoops            0                       # Number of snoops hitting in the snoop filter with multiple (>1) holders of the requested data. (Count)
system.workload.inst.arm                            0                       # number of arm instructions executed (Count)
system.workload.inst.quiesce                        0                       # number of quiesce instructions executed (Count)

---------- End Simulation Statistics   ----------

---------- Begin Simulation Statistics ----------
simSeconds                                   0.023922                       # Number of seconds simulated (Second)
simTicks                                  23921590000                       # Number of ticks simulated (Tick)
finalTick                                2388735710000                       # Number of ticks from beginning of simulation (restored from checkpoints and never reset) (Tick)
simFreq                                  1000000000000                       # The number of ticks per simulated second ((Tick/Second))
hostSeconds                                      0.63                       # Real time elapsed on the host (Second)
hostTickRate                              38235146505                       # The number of ticks simulated per host second (ticks/s) ((Tick/Second))
hostMemory                                    8646112                       # Number of bytes of host memory used (Byte)
simInsts                                     14614448                       # Number of instructions simulated (Count)
simOps                                       24881124                       # Number of ops (including micro ops) simulated (Count)
hostInstRate                                 23356136                       # Simulator instruction rate (inst/s) ((Count/Second))
hostOpRate                                   39763418                       # Simulator op (including micro ops) rate (op/s) ((Count/Second))
system.clk_domain.clock                          5000                       # Clock period in ticks (Tick)
system.clk_domain.voltage_domain.voltage            1                       # Voltage in Volts (Volt)
system.cpu.numCycles                          4784318                       # Number of cpu cycles simulated (Cycle)
system.cpu.cpi                              33.098472                       # CPI: cycles per instruction (core level) ((Cycle/Count))
system.cpu.ipc                               0.030213                       # IPC: instructions per cycle (core level) ((Count/Cycle))
system.cpu.numWorkItemsStarted                      0                       # Number of work items this cpu started (Count)
system.cpu.numWorkItemsCompleted                    0                       # Number of work items this cpu completed (Count)
system.cpu.commitStats0.numInsts               144548                       # Number of instructions committed (thread level) (Count)
system.cpu.commitStats0.numOps                 245345                       # Number of ops (including micro ops) committed (thread level) (Count)
system.cpu.commitStats0.numInstsNotNOP              0                       # Number of instructions committed excluding NOPs or prefetches (Count)
system.cpu.commitStats0.numOpsNotNOP                0                       # Number of Ops (including micro ops) Simulated (Count)
system.cpu.commitStats0.cpi                 33.098472                       # CPI: cycles per instruction (thread level) ((Cycle/Count))
system.cpu.commitStats0.ipc                  0.030213                       # IPC: instructions per cycle (thread level) ((Count/Cycle))
system.cpu.commitStats0.numMemRefs                  0                       # Number of memory references committed (Count)
system.cpu.commitStats0.numFpInsts               1048                       # Number of float instructions (Count)
system.cpu.commitStats0.numIntInsts            238665                       # Number of integer instructions (Count)
system.cpu.commitStats0.numLoadInsts            40254                       # Number of load instructions (Count)
system.cpu.commitStats0.numStoreInsts           28488                       # Number of store instructions (Count)
system.cpu.commitStats0.numVecInsts                 0                       # Number of vector instructions (Count)
system.cpu.commitStats0.committedInstType::No_OpClass         4025      1.64%      1.64% # Class of committed instruction. (Count)
system.cpu.commitStats0.committedInstType::IntAlu       168685     68.75%     70.39% # Class of committed instruction. (Count)
system.cpu.commitStats0.committedInstType::IntMult         3133      1.28%     71.67% # Class of committed instruction. (Count)
system.cpu.commitStats0.committedInstType::IntDiv          241      0.10%     71.77% # Class of committed instruction. (Count)
system.cpu.commitStats0.committedInstType::FloatAdd           63      0.03%     71.80% # Class of committed instruction. (Count)
system.cpu.commitStats0.committedInstType::FloatCmp            0      0.00%     71.80% # Class of committed instruction. (Count)
system.cpu.commitStats0.committedInstType::FloatCvt            0      0.00%     71.80% # Class of committed instruction. (Count)
system.cpu.commitStats0.committedInstType::FloatMult            0      0.00%     71.80% # Class of committed instruction. (Count)
system.cpu.commitStats0.committedInstType::FloatMultAcc            0      0.00%     71.80% # Class of committed instruction. (Count)
system.cpu.commitStats0.committedInstType::FloatDiv            0      0.00%     71.80% # Class of committed instruction. (Count)
system.cpu.commitStats0.committedInstType::FloatMisc            0      0.00%     71.80% # Class of committed instruction. (Count)
system.cpu.commitStats0.committedInstType::FloatSqrt            0      0.00%     71.80% # Class of committed instruction. (Count)
system.cpu.commitStats0.committedInstType::SimdAdd            0      0.00%     71.80% # Class of committed instruction. (Count)
system.cpu.commitStats0.committedInstType::SimdAddAcc            0      0.00%     71.80% # Class of committed instruction. (Count)
system.cpu.commitStats0.committedInstType::SimdAlu          164      0.07%     71.86% # Class of committed instruction. (Count)
system.cpu.commitStats0.committedInstType::SimdCmp            0      0.00%     71.86% # Class of committed instruction. (Count)
system.cpu.commitStats0.committedInstType::SimdCvt           58      0.02%     71.89% # Class of committed instruction. (Count)
system.cpu.commitStats0.committedInstType::SimdMisc          172      0.07%     71.96% # Class of committed instruction. (Count)
system.cpu.commitStats0.committedInstType::SimdMult            0      0.00%     71.96% # Class of committed instruction. (Count)
system.cpu.commitStats0.committedInstType::SimdMultAcc            0      0.00%     71.96% # Class of committed instruction. (Count)
system.cpu.commitStats0.committedInstType::SimdMatMultAcc            0      0.00%     71.96% # Class of committed instruction. (Count)
system.cpu.commitStats0.committedInstType::SimdShift            0      0.00%     71.96% # Class of committed instruction. (Count)
system.cpu.commitStats0.committedInstType::SimdShiftAcc            0      0.00%     71.96% # Class of committed instruction. (Count)
system.cpu.commitStats0.committedInstType::SimdDiv            0      0.00%     71.96% # Class of committed instruction. (Count)
system.cpu.commitStats0.committedInstType::SimdSqrt            0      0.00%     71.96% # Class of committed instruction. (Count)
system.cpu.commitStats0.committedInstType::SimdFloatAdd           21      0.01%     71.96% # Class of committed instruction. (Count)
system.cpu.commitStats0.committedInstType::SimdFloatAlu            0      0.00%     71.96% # Class of committed instruction. (Count)
system.cpu.commitStats0.committedInstType::SimdFloatCmp            0      0.00%     71.96% # Class of committed instruction. (Count)
system.cpu.commitStats0.committedInstType::SimdFloatCvt           24      0.01%     71.97% # Class of committed instruction. (Count)
system.cpu.commitStats0.committedInstType::SimdFloatDiv            4      0.00%     71.98% # Class of committed instruction. (Count)
system.cpu.commitStats0.committedInstType::SimdFloatMisc            0      0.00%     71.98% # Class of committed instruction. (Count)
system.cpu.commitStats0.committedInstType::SimdFloatMult           12      0.00%     71.98% # Class of committed instruction. (Count)
system.cpu.commitStats0.committedInstType::SimdFloatMultAcc            0      0.00%     71.98% # Class of committed instruction. (Count)
system.cpu.commitStats0.committedInstType::SimdFloatMatMultAcc            0      0.00%     71.98% # Class of committed instruction. (Count)
system.cpu.commitStats0.committedInstType::SimdFloatSqrt            1      0.00%     71.98% # Class of committed instruction. (Count)
system.cpu.commitStats0.committedInstType::SimdReduceAdd            0      0.00%     71.98% # Class of committed instruction. (Count)
system.cpu.commitStats0.committedInstType::SimdReduceAlu            0      0.00%     71.98% # Class of committed instruction. (Count)
system.cpu.commitStats0.committedInstType::SimdReduceCmp            0      0.00%     71.98% # Class of committed instruction. (Count)
system.cpu.commitStats0.committedInstType::SimdFloatReduceAdd            0      0.00%     71.98% # Class of committed instruction. (Count)
system.cpu.commitStats0.committedInstType::SimdFloatReduceCmp            0      0.00%     71.98% # Class of committed instruction. (Count)
system.cpu.commitStats0.committedInstType::SimdAes            0      0.00%     71.98% # Class of committed instruction. (Count)
system.cpu.commitStats0.committedInstType::SimdAesMix            0      0.00%     71.98% # Class of committed instruction. (Count)
system.cpu.commitStats0.committedInstType::SimdSha1Hash            0      0.00%     71.98% # Class of committed instruction. (Count)
system.cpu.commitStats0.committedInstType::SimdSha1Hash2            0      0.00%     71.98% # Class of committed instruction. (Count)
system.cpu.commitStats0.committedInstType::SimdSha256Hash            0      0.00%     71.98% # Class of committed instruction. (Count)
system.cpu.commitStats0.committedInstType::SimdSha256Hash2            0      0.00%     71.98% # Class of committed instruction. (Count)
system.cpu.commitStats0.committedInstType::SimdShaSigma2            0      0.00%     71.98% # Class of committed instruction. (Count)
system.cpu.commitStats0.committedInstType::SimdShaSigma3            0      0.00%     71.98% # Class of committed instruction. (Count)
system.cpu.commitStats0.committedInstType::SimdPredAlu            0      0.00%     71.98% # Class of committed instruction. (Count)
system.cpu.commitStats0.committedInstType::Matrix            0      0.00%     71.98% # Class of committed instruction. (Count)
system.cpu.commitStats0.committedInstType::MatrixMov            0      0.00%     71.98% # Class of committed instruction. (Count)
system.cpu.commitStats0.committedInstType::MatrixOP            0      0.00%     71.98% # Class of committed instruction. (Count)
system.cpu.commitStats0.committedInstType::MemRead        40051     16.32%     88.31% # Class of committed instruction. (Count)
system.cpu.commitStats0.committedInstType::MemWrite        28229     11.51%     99.81% # Class of committed instruction. (Count)
system.cpu.commitStats0.committedInstType::FloatMemRead          203      0.08%     99.89% # Class of committed instruction. (Count)
system.cpu.commitStats0.committedInstType::FloatMemWrite          259      0.11%    100.00% # Class of committed instruction. (Count)
system.cpu.commitStats0.committedInstType::IprAccess            0      0.00%    100.00% # Class of committed instruction. (Count)
system.cpu.commitStats0.committedInstType::InstPrefetch            0      0.00%    100.00% # Class of committed instruction. (Count)
system.cpu.commitStats0.committedInstType::SimdUnitStrideLoad            0      0.00%    100.00% # Class of committed instruction. (Count)
system.cpu.commitStats0.committedInstType::SimdUnitStrideStore            0      0.00%    100.00% # Class of committed instruction. (Count)
system.cpu.commitStats0.committedInstType::SimdUnitStrideMaskLoad            0      0.00%    100.00% # Class of committed instruction. (Count)
system.cpu.commitStats0.committedInstType::SimdUnitStrideMaskStore            0      0.00%    100.00% # Class of committed instruction. (Count)
system.cpu.commitStats0.committedInstType::SimdStridedLoad            0      0.00%    100.00% # Class of committed instruction. (Count)
system.cpu.commitStats0.committedInstType::SimdStridedStore            0      0.00%    100.00% # Class of committed instruction. (Count)
system.cpu.commitStats0.committedInstType::SimdIndexedLoad            0      0.00%    100.00% # Class of committed instruction. (Count)
system.cpu.commitStats0.committedInstType::SimdIndexedStore            0      0.00%    100.00% # Class of committed instruction. (Count)
system.cpu.commitStats0.committedInstType::SimdWholeRegisterLoad            0      0.00%    100.00% # Class of committed instruction. (Count)
system.cpu.commitStats0.committedInstType::SimdWholeRegisterStore            0      0.00%    100.00% # Class of committed instruction. (Count)
system.cpu.commitStats0.committedInstType::SimdUnitStrideFaultOnlyFirstLoad            0      0.00%    100.00% # Class of committed instruction. (Count)
system.cpu.commitStats0.committedInstType::SimdUnitStrideSegmentedLoad            0      0.00%    100.00% # Class of committed instruction. (Count)
[...]
system.mem_ctrl.dram.bwRead::cpu.data        12826502                       # Total read bandwidth from this memory ((Byte/Second))
system.mem_ctrl.dram.bwRead::total           77473633                       # Total read bandwidth from this memory ((Byte/Second))
system.mem_ctrl.dram.bwInstRead::cpu.inst     64647131                       # Instruction read bandwidth from this memory ((Byte/Second))
system.mem_ctrl.dram.bwInstRead::total       64647131                       # Instruction read bandwidth from this memory ((Byte/Second))
system.mem_ctrl.dram.bwWrite::cpu.data        6504853                       # Write bandwidth from this memory ((Byte/Second))
system.mem_ctrl.dram.bwWrite::total           6504853                       # Write bandwidth from this memory ((Byte/Second))
system.mem_ctrl.dram.bwTotal::cpu.inst       64647131                       # Total bandwidth to/from this memory ((Byte/Second))
system.mem_ctrl.dram.bwTotal::cpu.data       19331355                       # Total bandwidth to/from this memory ((Byte/Second))
system.mem_ctrl.dram.bwTotal::total          83978486                       # Total bandwidth to/from this memory ((Byte/Second))
system.mem_ctrl.dram.readBursts                 48487                       # Number of DRAM read bursts (Count)
system.mem_ctrl.dram.writeBursts                  409                       # Number of DRAM write bursts (Count)
system.mem_ctrl.dram.perBankRdBursts::0          4483                       # Per bank write bursts (Count)
system.mem_ctrl.dram.perBankRdBursts::1          1871                       # Per bank write bursts (Count)
system.mem_ctrl.dram.perBankRdBursts::2          1433                       # Per bank write bursts (Count)
system.mem_ctrl.dram.perBankRdBursts::3          2777                       # Per bank write bursts (Count)
system.mem_ctrl.dram.perBankRdBursts::4          1274                       # Per bank write bursts (Count)
system.mem_ctrl.dram.perBankRdBursts::5          9054                       # Per bank write bursts (Count)
system.mem_ctrl.dram.perBankRdBursts::6          4634                       # Per bank write bursts (Count)
system.mem_ctrl.dram.perBankRdBursts::7          4701                       # Per bank write bursts (Count)
system.mem_ctrl.dram.perBankRdBursts::8          1376                       # Per bank write bursts (Count)
system.mem_ctrl.dram.perBankRdBursts::9          1426                       # Per bank write bursts (Count)
system.mem_ctrl.dram.perBankRdBursts::10          762                       # Per bank write bursts (Count)
system.mem_ctrl.dram.perBankRdBursts::11         1575                       # Per bank write bursts (Count)
system.mem_ctrl.dram.perBankRdBursts::12          875                       # Per bank write bursts (Count)
system.mem_ctrl.dram.perBankRdBursts::13         1642                       # Per bank write bursts (Count)
system.mem_ctrl.dram.perBankRdBursts::14         9439                       # Per bank write bursts (Count)
system.mem_ctrl.dram.perBankRdBursts::15         1165                       # Per bank write bursts (Count)
system.mem_ctrl.dram.perBankWrBursts::0             0                       # Per bank write bursts (Count)
system.mem_ctrl.dram.perBankWrBursts::1            18                       # Per bank write bursts (Count)
system.mem_ctrl.dram.perBankWrBursts::2             0                       # Per bank write bursts (Count)
system.mem_ctrl.dram.perBankWrBursts::3            16                       # Per bank write bursts (Count)
system.mem_ctrl.dram.perBankWrBursts::4            14                       # Per bank write bursts (Count)
system.mem_ctrl.dram.perBankWrBursts::5            11                       # Per bank write bursts (Count)
system.mem_ctrl.dram.perBankWrBursts::6           183                       # Per bank write bursts (Count)
system.mem_ctrl.dram.perBankWrBursts::7            34                       # Per bank write bursts (Count)
system.mem_ctrl.dram.perBankWrBursts::8            21                       # Per bank write bursts (Count)
system.mem_ctrl.dram.perBankWrBursts::9             0                       # Per bank write bursts (Count)
system.mem_ctrl.dram.perBankWrBursts::10           29                       # Per bank write bursts (Count)
system.mem_ctrl.dram.perBankWrBursts::11           37                       # Per bank write bursts (Count)
system.mem_ctrl.dram.perBankWrBursts::12           13                       # Per bank write bursts (Count)
system.mem_ctrl.dram.perBankWrBursts::13           10                       # Per bank write bursts (Count)
system.mem_ctrl.dram.perBankWrBursts::14            4                       # Per bank write bursts (Count)
system.mem_ctrl.dram.perBankWrBursts::15           19                       # Per bank write bursts (Count)
system.mem_ctrl.dram.totQLat                250790000                       # Total ticks spent queuing (Tick)
system.mem_ctrl.dram.totBusLat              242435000                       # Total ticks spent in databus transfers (Tick)
system.mem_ctrl.dram.totMemAccLat          1159921250                       # Total ticks spent from burst creation until serviced by the DRAM (Tick)
system.mem_ctrl.dram.avgQLat                  5172.31                       # Average queueing delay per DRAM burst ((Tick/Count))
system.mem_ctrl.dram.avgBusLat                5000.00                       # Average bus latency per DRAM burst ((Tick/Count))
system.mem_ctrl.dram.avgMemAccLat            23922.31                       # Average memory access latency per DRAM burst ((Tick/Count))
system.mem_ctrl.dram.readRowHits                41875                       # Number of row buffer hits during reads (Count)
system.mem_ctrl.dram.writeRowHits                 343                       # Number of row buffer hits during writes (Count)
system.mem_ctrl.dram.readRowHitRate             86.36                       # Row buffer hit rate for reads (Ratio)
system.mem_ctrl.dram.writeRowHitRate            83.86                       # Row buffer hit rate for writes (Ratio)
system.mem_ctrl.dram.bytesPerActivate::samples         6678                       # Bytes accessed per row activation (Byte)
system.mem_ctrl.dram.bytesPerActivate::mean   468.557053                       # Bytes accessed per row activation (Byte)
system.mem_ctrl.dram.bytesPerActivate::gmean   281.465333                       # Bytes accessed per row activation (Byte)
system.mem_ctrl.dram.bytesPerActivate::stdev   398.472436                       # Bytes accessed per row activation (Byte)
system.mem_ctrl.dram.bytesPerActivate::0-127         1686     25.25%     25.25% # Bytes accessed per row activation (Byte)
system.mem_ctrl.dram.bytesPerActivate::128-255         1319     19.75%     45.00% # Bytes accessed per row activation (Byte)
system.mem_ctrl.dram.bytesPerActivate::256-383          597      8.94%     53.94% # Bytes accessed per row activation (Byte)
system.mem_ctrl.dram.bytesPerActivate::384-511          401      6.00%     59.94% # Bytes accessed per row activation (Byte)
system.mem_ctrl.dram.bytesPerActivate::512-639          243      3.64%     63.58% # Bytes accessed per row activation (Byte)
system.mem_ctrl.dram.bytesPerActivate::640-767          238      3.56%     67.15% # Bytes accessed per row activation (Byte)
system.mem_ctrl.dram.bytesPerActivate::768-895          194      2.91%     70.05% # Bytes accessed per row activation (Byte)
system.mem_ctrl.dram.bytesPerActivate::896-1023          157      2.35%     72.40% # Bytes accessed per row activation (Byte)
system.mem_ctrl.dram.bytesPerActivate::1024-1151         1843     27.60%    100.00% # Bytes accessed per row activation (Byte)
system.mem_ctrl.dram.bytesPerActivate::total         6678                       # Bytes accessed per row activation (Byte)
system.mem_ctrl.dram.dramBytesRead            3103168                       # Total bytes read (Byte)
system.mem_ctrl.dram.dramBytesWritten           26176                       # Total bytes written (Byte)
system.mem_ctrl.dram.avgRdBW               624.054040                       # Average DRAM read bandwidth in MiBytes/s ((Byte/Second))
system.mem_ctrl.dram.avgWrBW                 5.264052                       # Average DRAM write bandwidth in MiBytes/s ((Byte/Second))
system.mem_ctrl.dram.peakBW                  12800.00                       # Theoretical peak bandwidth in MiByte/s ((Byte/Second))
system.mem_ctrl.dram.busUtil                     4.92                       # Data bus utilization in percentage (Ratio)
system.mem_ctrl.dram.busUtilRead                 4.88                       # Data bus utilization in percentage for reads (Ratio)
system.mem_ctrl.dram.busUtilWrite                0.04                       # Data bus utilization in percentage for writes (Ratio)
system.mem_ctrl.dram.pageHitRate                86.34                       # Row buffer hit rate, read and write combined (Ratio)
system.mem_ctrl.dram.power_state.pwrStateResidencyTicks::UNDEFINED   4972595000                       # Cumulative time (in ticks) in various power states (Tick)
system.mem_ctrl.dram.rank0.actEnergy         31715880                       # Energy for activate commands per rank (pJ) (Joule)
system.mem_ctrl.dram.rank0.preEnergy         16864980                       # Energy for precharge commands per rank (pJ) (Joule)
system.mem_ctrl.dram.rank0.readEnergy       215820780                       # Energy for read commands per rank (pJ) (Joule)
system.mem_ctrl.dram.rank0.writeEnergy        1440720                       # Energy for write commands per rank (pJ) (Joule)
system.mem_ctrl.dram.rank0.refreshEnergy 392754960.000000                       # Energy for refresh commands per rank (pJ) (Joule)
system.mem_ctrl.dram.rank0.actBackEnergy   2139966960                       # Energy for active background per rank (pJ) (Joule)
system.mem_ctrl.dram.rank0.preBackEnergy    107399040                       # Energy for precharge background per rank (pJ) (Joule)
system.mem_ctrl.dram.rank0.actPowerDownEnergy            0                       # Energy for active power-down per rank (pJ) (Joule)
system.mem_ctrl.dram.rank0.prePowerDownEnergy            0                       # Energy for precharge power-down per rank (pJ) (Joule)
system.mem_ctrl.dram.rank0.selfRefreshEnergy            0                       # Energy for self refresh per rank (pJ) (Joule)
system.mem_ctrl.dram.rank0.totalEnergy     2905963320                       # Total energy per rank (pJ) (Joule)
system.mem_ctrl.dram.rank0.averagePower    584.395737                       # Core power per rank (mW) (Watt)
system.mem_ctrl.dram.rank0.totalIdleTime            0                       # Total Idle time Per DRAM Rank (Tick)
system.mem_ctrl.dram.rank0.pwrStateTime::IDLE    259005000                       # Time in different power states (Tick)
system.mem_ctrl.dram.rank0.pwrStateTime::REF    166140000                       # Time in different power states (Tick)
system.mem_ctrl.dram.rank0.pwrStateTime::SREF            0                       # Time in different power states (Tick)
system.mem_ctrl.dram.rank0.pwrStateTime::PRE_PDN            0                       # Time in different power states (Tick)
system.mem_ctrl.dram.rank0.pwrStateTime::ACT   4547450000                       # Time in different power states (Tick)
system.mem_ctrl.dram.rank0.pwrStateTime::ACT_PDN            0                       # Time in different power states (Tick)
system.mem_ctrl.dram.rank1.actEnergy         15965040                       # Energy for activate commands per rank (pJ) (Joule)
system.mem_ctrl.dram.rank1.preEnergy          8478030                       # Energy for precharge commands per rank (pJ) (Joule)
system.mem_ctrl.dram.rank1.readEnergy       130376400                       # Energy for read commands per rank (pJ) (Joule)
system.mem_ctrl.dram.rank1.writeEnergy         694260                       # Energy for write commands per rank (pJ) (Joule)
system.mem_ctrl.dram.rank1.refreshEnergy 392754960.000000                       # Energy for refresh commands per rank (pJ) (Joule)
system.mem_ctrl.dram.rank1.actBackEnergy   1857017820                       # Energy for active background per rank (pJ) (Joule)
system.mem_ctrl.dram.rank1.preBackEnergy    345672000                       # Energy for precharge background per rank (pJ) (Joule)
system.mem_ctrl.dram.rank1.actPowerDownEnergy            0                       # Energy for active power-down per rank (pJ) (Joule)
system.mem_ctrl.dram.rank1.prePowerDownEnergy            0                       # Energy for precharge power-down per rank (pJ) (Joule)
system.mem_ctrl.dram.rank1.selfRefreshEnergy            0                       # Energy for self refresh per rank (pJ) (Joule)
system.mem_ctrl.dram.rank1.totalEnergy     2750958510                       # Total energy per rank (pJ) (Joule)
system.mem_ctrl.dram.rank1.averagePower    553.223922                       # Core power per rank (mW) (Watt)
system.mem_ctrl.dram.rank1.totalIdleTime            0                       # Total Idle time Per DRAM Rank (Tick)
system.mem_ctrl.dram.rank1.pwrStateTime::IDLE    877266250                       # Time in different power states (Tick)
system.mem_ctrl.dram.rank1.pwrStateTime::REF    166140000                       # Time in different power states (Tick)
system.mem_ctrl.dram.rank1.pwrStateTime::SREF            0                       # Time in different power states (Tick)
system.mem_ctrl.dram.rank1.pwrStateTime::PRE_PDN            0                       # Time in different power states (Tick)
system.mem_ctrl.dram.rank1.pwrStateTime::ACT   3929188750                       # Time in different power states (Tick)
system.mem_ctrl.dram.rank1.pwrStateTime::ACT_PDN            0                       # Time in different power states (Tick)
system.mem_ctrl.power_state.pwrStateResidencyTicks::UNDEFINED   4972595000                       # Cumulative time (in ticks) in various power states (Tick)
system.membus.transDist::ReadReq                49250                       # Transaction distribution (Count)
system.membus.transDist::ReadResp               49251                       # Transaction distribution (Count)
system.membus.transDist::WriteReq                4255                       # Transaction distribution (Count)
system.membus.transDist::WriteResp               4255                       # Transaction distribution (Count)
system.membus.transDist::LockedRMWReadReq          208                       # Transaction distribution (Count)
system.membus.transDist::LockedRMWReadResp          208                       # Transaction distribution (Count)
system.membus.transDist::LockedRMWWriteReq          208                       # Transaction distribution (Count)
system.membus.transDist::LockedRMWWriteResp          208                       # Transaction distribution (Count)
system.membus.pktCount_system.cpu.icache_port::system.mem_ctrl.port        80365                       # Packet count per connected requestor and responder (Count)
system.membus.pktCount_system.cpu.icache_port::total        80365                       # Packet count per connected requestor and responder (Count)
system.membus.pktCount_system.cpu.dcache_port::system.mem_ctrl.port        27478                       # Packet count per connected requestor and responder (Count)
system.membus.pktCount_system.cpu.dcache_port::total        27478                       # Packet count per connected requestor and responder (Count)
system.membus.pktCount::total                  107843                       # Packet count per connected requestor and responder (Count)
system.membus.pktSize_system.cpu.icache_port::system.mem_ctrl.port       321464                       # Cumulative packet size per connected requestor and responder (Byte)
system.membus.pktSize_system.cpu.icache_port::total       321464                       # Cumulative packet size per connected requestor and responder (Byte)
system.membus.pktSize_system.cpu.dcache_port::system.mem_ctrl.port        96127                       # Cumulative packet size per connected requestor and responder (Byte)
system.membus.pktSize_system.cpu.dcache_port::total        96127                       # Cumulative packet size per connected requestor and responder (Byte)
system.membus.pktSize::total                   417591                       # Cumulative packet size per connected requestor and responder (Byte)
system.membus.snoops                                0                       # Total snoops (Count)
system.membus.snoopTraffic                          0                       # Total snoop traffic (Byte)
system.membus.snoopFanout::samples              53921                       # Request fanout histogram (Count)
system.membus.snoopFanout::mean                     0                       # Request fanout histogram (Count)
system.membus.snoopFanout::stdev                    0                       # Request fanout histogram (Count)
system.membus.snoopFanout::underflows               0      0.00%      0.00% # Request fanout histogram (Count)
system.membus.snoopFanout::0                    53921    100.00%    100.00% # Request fanout histogram (Count)
system.membus.snoopFanout::1                        0      0.00%    100.00% # Request fanout histogram (Count)
system.membus.snoopFanout::overflows                0      0.00%    100.00% # Request fanout histogram (Count)
system.membus.snoopFanout::min_value                0                       # Request fanout histogram (Count)
system.membus.snoopFanout::max_value                0                       # Request fanout histogram (Count)
system.membus.snoopFanout::total                53921                       # Request fanout histogram (Count)
system.membus.power_state.pwrStateResidencyTicks::UNDEFINED   4972595000                       # Cumulative time (in ticks) in various power states (Tick)
system.membus.reqLayer2.occupancy           291920000                       # Layer occupancy (ticks) (Tick)
system.membus.reqLayer2.utilization               0.1                       # Layer utilization (Ratio)
system.membus.respLayer1.occupancy          456591250                       # Layer occupancy (ticks) (Tick)
system.membus.respLayer1.utilization              0.1                       # Layer utilization (Ratio)
system.membus.respLayer2.occupancy          130532500                       # Layer occupancy (ticks) (Tick)
system.membus.respLayer2.utilization              0.0                       # Layer utilization (Ratio)
system.membus.snoop_filter.totRequests              0                       # Total number of requests made to the snoop filter. (Count)
system.membus.snoop_filter.hitSingleRequests            0                       # Number of requests hitting in the snoop filter with a single holder of the requested data. (Count)
system.membus.snoop_filter.hitMultiRequests            0                       # Number of requests hitting in the snoop filter with multiple (>1) holders of the requested data. (Count)
system.membus.snoop_filter.totSnoops                0                       # Total number of snoops made to the snoop filter. (Count)
system.membus.snoop_filter.hitSingleSnoops            0                       # Number of snoops hitting in the snoop filter with a single holder of the requested data. (Count)
system.membus.snoop_filter.hitMultiSnoops            0                       # Number of snoops hitting in the snoop filter with multiple (>1) holders of the requested data. (Count)
system.workload.inst.arm                            0                       # number of arm instructions executed (Count)
system.workload.inst.quiesce                        0                       # number of quiesce instructions executed (Count)

---------- End Simulation Statistics   ----------
